AMOSTRA/TUM/Trafos.dss
! ==========================================================
! TRANSFORMADORES DE DISTRIBUICAO — gerados de UNTRMT/EQTRMT
! Secundario 1F/2F: 3 enrolamentos com derivacao central
! Neutro no no 4, aterrado em _ATERRAMENTO.dss
! Kv de BT conforme TEN_LIN_SE da BDGD
! ==========================================================
New Transformer.3176610 phases=1 windings=3 Xhl=1.200 Xht=1.200 Xlt=0.600
~ wdg=1 bus=16342-12867518.1.2 conn=wye Kv=34.5000 Kva=5.0 %R=0.500
~ wdg=2 bus=3176610-12867518v.1.4 conn=wye Kv=0.1270 Kva=5.0 %R=0.500
~ wdg=3 bus=3176610-12867518v.4.2 conn=wye Kv=0.1270 Kva=5.0 %R=0.500
New Transformer.3176596 phases=1 windings=3 Xhl=1.200 Xht=1.200 Xlt=0.600
~ wdg=1 bus=16342-12867527.1.2 conn=wye Kv=34.5000 Kva=5.0 %R=0.500
~ wdg=2 bus=3176596-12867527v.1.4 conn=wye Kv=0.1270 Kva=5.0 %R=0.500
~ wdg=3 bus=3176596-12867527v.4.2 conn=wye Kv=0.1270 Kva=5.0 %R=0.500
New Transformer.3176606 phases=1 windings=3 Xhl=1.200 Xht=1.200 Xlt=0.600
~ wdg=1 bus=16342-12867515.1.2 conn=wye Kv=34.5000 Kva=5.0 %R=0.500
~ wdg=2 bus=3176606-12867515v.1.4 conn=wye Kv=0.1270 Kva=5.0 %R=0.500
~ wdg=3 bus=3176606-12867515v.4.2 conn=wye Kv=0.1270 Kva=5.0 %R=0.500
New Transformer.3176637 phases=1 windings=3 Xhl=1.200 Xht=1.200 Xlt=0.600
~ wdg=1 bus=16342-12867644.1.2 conn=wye Kv=34.5000 Kva=5.0 %R=0.500
~ wdg=2 bus=3176637-12867644v.1.4 conn=wye Kv=0.1270 Kva=5.0 %R=0.500
~ wdg=3 bus=3176637-12867644v.4.2 conn=wye Kv=0.1270 Kva=5.0 %R=0.500
New Transformer.3176588 phases=1 windings=3 Xhl=1.200 Xht=1.200 Xlt=0.600
~ wdg=1 bus=16342-12867536.1.2 conn=wye Kv=34.5000 Kva=5.0 %R=0.500
~ wdg=2 bus=3176588-12867536v.1.4 conn=wye Kv=0.1270 Kva=5.0 %R=0.500
~ wdg=3 bus=3176588-12867536v.4.2 conn=wye Kv=0.1270 Kva=5.0 %R=0.500
New Transformer.3176603 phases=1 windings=3 Xhl=1.200 Xht=1.200 Xlt=0.600
~ wdg=1 bus=16342-12867521.1.2 conn=wye Kv=34.5000 Kva=5.0 %R=0.500
~ wdg=2 bus=3176603-12867521v.1.4 conn=wye Kv=0.1270 Kva=5.0 %R=0.500
~ wdg=3 bus=3176603-12867521v.4.2 conn=wye Kv=0.1270 Kva=5.0 %R=0.500
New Transformer.3176602 phases=1 windings=3 Xhl=1.200 Xht=1.200 Xlt=0.600
~ wdg=1 bus=16342-12867522.1.2 conn=wye Kv=34.5000 Kva=5.0 %R=0.500
~ wdg=2 bus=3176602-12867522v.1.4 conn=wye Kv=0.1270 Kva=5.0 %R=0.500
~ wdg=3 bus=3176602-12867522v.4.2 conn=wye Kv=0.1270 Kva=5.0 %R=0.500
New Transformer.3176591 phases=1 windings=3 Xhl=1.200 Xht=1.200 Xlt=0.600
~ wdg=1 bus=16342-12867531.1.2 conn=wye Kv=34.5000 Kva=5.0 %R=0.500
~ wdg=2 bus=3176591-12867531v.1.4 conn=wye Kv=0.1270 Kva=5.0 %R=0.500
~ wdg=3 bus=3176591-12867531v.4.2 conn=wye Kv=0.1270 Kva=5.0 %R=0.500
New Transformer.3176630 phases=1 windings=3 Xhl=1.200 Xht=1.200 Xlt=0.600
~ wdg=1 bus=16342-12867507.1.2 conn=wye Kv=34.5000 Kva=5.0 %R=0.500
~ wdg=2 bus=3176630-12867507v.1.4 conn=wye Kv=0.1270 Kva=5.0 %R=0.500
~ wdg=3 bus=3176630-12867507v.4.2 conn=wye Kv=0.1270 Kva=5.0 %R=0.500
New Transformer.3176599 phases=1 windings=3 Xhl=1.200 Xht=1.200 Xlt=0.600
~ wdg=1 bus=16342-12867525.1.2 conn=wye Kv=34.5000 Kva=5.0 %R=0.500
~ wdg=2 bus=3176599-12867525v.1.4 conn=wye Kv=0.1270 Kva=5.0 %R=0.500
~ wdg=3 bus=3176599-12867525v.4.2 conn=wye Kv=0.1270 Kva=5.0 %R=0.500
New Transformer.3176612 phases=1 windings=3 Xhl=1.200 Xht=1.200 Xlt=0.600
~ wdg=1 bus=16342-12867516.1.2 conn=wye Kv=34.5000 Kva=5.0 %R=0.500
~ wdg=2 bus=3176612-12867516v.1.4 conn=wye Kv=0.1270 Kva=5.0 %R=0.500
~ wdg=3 bus=3176612-12867516v.4.2 conn=wye Kv=0.1270 Kva=5.0 %R=0.500
New Transformer.3176634 phases=1 windings=3 Xhl=1.200 Xht=1.200 Xlt=0.600
~ wdg=1 bus=16342-12867502.1.2 conn=wye Kv=34.5000 Kva=5.0 %R=0.500
~ wdg=2 bus=3176634-12867502v.1.4 conn=wye Kv=0.1270 Kva=5.0 %R=0.500
~ wdg=3 bus=3176634-12867502v.4.2 conn=wye Kv=0.1270 Kva=5.0 %R=0.500
New Transformer.3176624 phases=1 windings=3 Xhl=1.200 Xht=1.200 Xlt=0.600
~ wdg=1 bus=16342-12867510.1.2 conn=wye Kv=34.5000 Kva=5.0 %R=0.500
~ wdg=2 bus=3176624-12867510v.1.4 conn=wye Kv=0.1270 Kva=5.0 %R=0.500
~ wdg=3 bus=3176624-12867510v.4.2 conn=wye Kv=0.1270 Kva=5.0 %R=0.500
New Transformer.2858528 phases=3 windings=2 Xhl=1.200
~ wdg=1 bus=12779-11315946.1.2.3 conn=delta Kv=13.8 Kva=75.0 %R=0.500
~ wdg=2 bus=2858528-11315956.1.2.3.4 conn=wye Kv=0.2200 Kva=75.0 %R=0.500
New Transformer.2859126 phases=3 windings=2 Xhl=1.200
~ wdg=1 bus=12779-11429055.1.2.3 conn=delta Kv=13.8 Kva=75.0 %R=0.500
~ wdg=2 bus=2859126-11429009.1.2.3.4 conn=wye Kv=0.2200 Kva=75.0 %R=0.500
New Transformer.2966655 phases=1 windings=3 Xhl=1.200 Xht=1.200 Xlt=0.600
~ wdg=1 bus=12779-11572517.1 conn=wye Kv=7.9674 Kva=5.0 %R=0.500
~ wdg=2 bus=2966655-11572517v.1.4 conn=wye Kv=0.1100 Kva=5.0 %R=0.500
~ wdg=3 bus=2966655-11572517v.4.2 conn=wye Kv=0.1100 Kva=5.0 %R=0.500
New Transformer.2966664 phases=1 windings=3 Xhl=1.200 Xht=1.200 Xlt=0.600
~ wdg=1 bus=12779-11572537.1 conn=wye Kv=7.9674 Kva=5.0 %R=0.500
~ wdg=2 bus=2966664-11572714.1.4 conn=wye Kv=0.1100 Kva=5.0 %R=0.500
~ wdg=3 bus=2966664-11572714.4.2 conn=wye Kv=0.1100 Kva=5.0 %R=0.500
New Transformer.2966665 phases=1 windings=3 Xhl=1.200 Xht=1.200 Xlt=0.600
~ wdg=1 bus=12779-11572551.1 conn=wye Kv=7.9674 Kva=5.0 %R=0.500
~ wdg=2 bus=2966665-11572551v.1.4 conn=wye Kv=0.1100 Kva=5.0 %R=0.500
~ wdg=3 bus=2966665-11572551v.4.2 conn=wye Kv=0.1100 Kva=5.0 %R=0.500
New Transformer.2966666 phases=1 windings=3 Xhl=1.200 Xht=1.200 Xlt=0.600
~ wdg=1 bus=12779-11572559.1 conn=wye Kv=7.9674 Kva=5.0 %R=0.500
~ wdg=2 bus=2966666-11572559v.1.4 conn=wye Kv=0.1100 Kva=5.0 %R=0.500
~ wdg=3 bus=2966666-11572559v.4.2 conn=wye Kv=0.1100 Kva=5.0 %R=0.500
New Transformer.2966668 phases=1 windings=3 Xhl=1.200 Xht=1.200 Xlt=0.600
~ wdg=1 bus=12779-11572564.1 conn=wye Kv=7.9674 Kva=5.0 %R=0.500
~ wdg=2 bus=2966668-11572717.1.4 conn=wye Kv=0.1100 Kva=5.0 %R=0.500
~ wdg=3 bus=2966668-11572717.4.2 conn=wye Kv=0.1100 Kva=5.0 %R=0.500
New Transformer.2966669 phases=1 windings=3 Xhl=1.200 Xht=1.200 Xlt=0.600
~ wdg=1 bus=12779-11572570.1 conn=wye Kv=7.9674 Kva=5.0 %R=0.500
~ wdg=2 bus=2966669-11572571.1.4 conn=wye Kv=0.1100 Kva=5.0 %R=0.500
~ wdg=3 bus=2966669-11572571.4.2 conn=wye Kv=0.1100 Kva=5.0 %R=0.500
New Transformer.2966671 phases=1 windings=3 Xhl=1.200 Xht=1.200 Xlt=0.600
~ wdg=1 bus=12779-11572593.1 conn=wye Kv=7.9674 Kva=15.0 %R=0.500
~ wdg=2 bus=2966671-11572595.1.4 conn=wye Kv=0.1100 Kva=15.0 %R=0.500
~ wdg=3 bus=2966671-11572595.4.2 conn=wye Kv=0.1100 Kva=15.0 %R=0.500
New Transformer.2966680 phases=1 windings=3 Xhl=1.200 Xht=1.200 Xlt=0.600
~ wdg=1 bus=12779-11572602.1 conn=wye Kv=7.9674 Kva=5.0 %R=0.500
~ wdg=2 bus=2966680-11572602v.1.4 conn=wye Kv=0.1100 Kva=5.0 %R=0.500
~ wdg=3 bus=2966680-11572602v.4.2 conn=wye Kv=0.1100 Kva=5.0 %R=0.500
New Transformer.2966686 phases=1 windings=3 Xhl=1.200 Xht=1.200 Xlt=0.600
~ wdg=1 bus=12779-11572621.1 conn=wye Kv=7.9674 Kva=10.0 %R=0.500
~ wdg=2 bus=2966686-11572711.1.4 conn=wye Kv=0.1100 Kva=10.0 %R=0.500
~ wdg=3 bus=2966686-11572711.4.2 conn=wye Kv=0.1100 Kva=10.0 %R=0.500
New Transformer.2966690 phases=1 windings=3 Xhl=1.200 Xht=1.200 Xlt=0.600
~ wdg=1 bus=12779-11572638.1 conn=wye Kv=7.9674 Kva=10.0 %R=0.500
~ wdg=2 bus=2966690-11572641.1.4 conn=wye Kv=0.1100 Kva=10.0 %R=0.500
~ wdg=3 bus=2966690-11572641.4.2 conn=wye Kv=0.1100 Kva=10.0 %R=0.500
New Transformer.2966695 phases=1 windings=3 Xhl=1.200 Xht=1.200 Xlt=0.600
~ wdg=1 bus=12779-11572659.1 conn=wye Kv=7.9674 Kva=5.0 %R=0.500
~ wdg=2 bus=2966695-11572659v.1.4 conn=wye Kv=0.1100 Kva=5.0 %R=0.500
~ wdg=3 bus=2966695-11572659v.4.2 conn=wye Kv=0.1100 Kva=5.0 %R=0.500
New Transformer.2966696 phases=1 windings=3 Xhl=1.200 Xht=1.200 Xlt=0.600
~ wdg=1 bus=12779-11572682.1 conn=wye Kv=7.9674 Kva=5.0 %R=0.500
~ wdg=2 bus=2966696-11572682v.1.4 conn=wye Kv=0.1100 Kva=5.0 %R=0.500
~ wdg=3 bus=2966696-11572682v.4.2 conn=wye Kv=0.1100 Kva=5.0 %R=0.500
New Transformer.2966661 phases=1 windings=3 Xhl=1.200 Xht=1.200 Xlt=0.600
~ wdg=1 bus=12779-11572685.1 conn=wye Kv=7.9674 Kva=5.0 %R=0.500
~ wdg=2 bus=2966661-11572685v.1.4 conn=wye Kv=0.1100 Kva=5.0 %R=0.500
~ wdg=3 bus=2966661-11572685v.4.2 conn=wye Kv=0.1100 Kva=5.0 %R=0.500
New Transformer.2980440 phases=1 windings=3 Xhl=1.200 Xht=1.200 Xlt=0.600
~ wdg=1 bus=12779-11644293.2 conn=wye Kv=7.9674 Kva=5.0 %R=0.500
~ wdg=2 bus=2980440-11644294.1.4 conn=wye Kv=0.1100 Kva=5.0 %R=0.500
~ wdg=3 bus=2980440-11644294.4.2 conn=wye Kv=0.1100 Kva=5.0 %R=0.500
New Transformer.2275949 phases=3 windings=2 Xhl=1.200
~ wdg=1 bus=12779-11862406.1.2.3 conn=delta Kv=13.8 Kva=112.5 %R=0.500
~ wdg=2 bus=2275949-11862406v.1.2.3.4 conn=wye Kv=0.2200 Kva=112.5 %R=0.500
New Transformer.3072321 phases=3 windings=2 Xhl=1.200
~ wdg=1 bus=12779-12163349.1.2.3 conn=delta Kv=13.8 Kva=75.0 %R=0.500
~ wdg=2 bus=3072321-8041990.1.2.3.4 conn=wye Kv=0.2200 Kva=75.0 %R=0.500
New Transformer.3073849 phases=1 windings=3 Xhl=1.200 Xht=1.200 Xlt=0.600
~ wdg=1 bus=12779-12176339.1 conn=wye Kv=7.9674 Kva=10.0 %R=0.500
~ wdg=2 bus=3073849-12176339v.1.4 conn=wye Kv=0.1100 Kva=10.0 %R=0.500
~ wdg=3 bus=3073849-12176339v.4.2 conn=wye Kv=0.1100 Kva=10.0 %R=0.500
New Transformer.3090550 phases=3 windings=2 Xhl=1.200
~ wdg=1 bus=12779-12291861.1.2.3 conn=delta Kv=13.8 Kva=112.5 %R=0.500
~ wdg=2 bus=3090550-12291861v.1.2.3.4 conn=wye Kv=0.2200 Kva=112.5 %R=0.500
New Transformer.3121115 phases=3 windings=2 Xhl=1.200
~ wdg=1 bus=12779-12485401.1.2.3 conn=delta Kv=13.8 Kva=112.5 %R=0.500
~ wdg=2 bus=3121115-12485401v.1.2.3.4 conn=wye Kv=0.2200 Kva=112.5 %R=0.500
New Transformer.3121513 phases=3 windings=2 Xhl=1.200
~ wdg=1 bus=12779-12487523.1.2.3 conn=delta Kv=13.8 Kva=45.0 %R=0.500
~ wdg=2 bus=3121513-8042393.1.2.3.4 conn=wye Kv=0.2200 Kva=45.0 %R=0.500
New Transformer.3123846 phases=3 windings=2 Xhl=1.200
~ wdg=1 bus=12779-12501027.1.2.3 conn=delta Kv=13.8 Kva=75.0 %R=0.500
~ wdg=2 bus=3123846-8042551.1.2.3.4 conn=wye Kv=0.2200 Kva=75.0 %R=0.500
New Transformer.3028797 phases=3 windings=2 Xhl=1.200
~ wdg=1 bus=12779-12508016.1.2.3 conn=delta Kv=13.8 Kva=45.0 %R=0.500
~ wdg=2 bus=3028797-12508032.1.2.3.4 conn=wye Kv=0.2200 Kva=45.0 %R=0.500
New Transformer.3125070 phases=3 windings=2 Xhl=1.200
~ wdg=1 bus=12779-12508045.1.2.3 conn=delta Kv=13.8 Kva=45.0 %R=0.500
~ wdg=2 bus=3125070-12508039.1.2.3.4 conn=wye Kv=0.2200 Kva=45.0 %R=0.500
New Transformer.3028798 phases=3 windings=2 Xhl=1.200
~ wdg=1 bus=12779-12508053.1.2.3 conn=delta Kv=13.8 Kva=45.0 %R=0.500
~ wdg=2 bus=3028798-12508057.1.2.3.4 conn=wye Kv=0.2200 Kva=45.0 %R=0.500
New Transformer.3127940 phases=3 windings=2 Xhl=1.200
~ wdg=1 bus=12779-12522797.1.2.3 conn=delta Kv=13.8 Kva=75.0 %R=0.500
~ wdg=2 bus=3127940-12522919.1.2.3.4 conn=wye Kv=0.2200 Kva=75.0 %R=0.500
New Transformer.3127933 phases=3 windings=2 Xhl=1.200
~ wdg=1 bus=12779-12522823.1.2.3 conn=delta Kv=13.8 Kva=75.0 %R=0.500
~ wdg=2 bus=3127933-12522938.1.2.3.4 conn=wye Kv=0.2200 Kva=75.0 %R=0.500
New Transformer.3127941 phases=3 windings=2 Xhl=1.200
~ wdg=1 bus=12779-12522829.1.2.3 conn=delta Kv=13.8 Kva=75.0 %R=0.500
~ wdg=2 bus=3127941-12523074.1.2.3.4 conn=wye Kv=0.2200 Kva=75.0 %R=0.500
New Transformer.3131486 phases=3 windings=2 Xhl=1.200
~ wdg=1 bus=12779-12546213.1.2.3 conn=delta Kv=13.8 Kva=45.0 %R=0.500
~ wdg=2 bus=3131486-8041614.1.2.3.4 conn=wye Kv=0.2200 Kva=45.0 %R=0.500
New Transformer.3147484 phases=3 windings=2 Xhl=1.200
~ wdg=1 bus=12779-12638978.1.2.3 conn=delta Kv=13.8 Kva=45.0 %R=0.500
~ wdg=2 bus=3147484-8042528.1.2.3.4 conn=wye Kv=0.2200 Kva=45.0 %R=0.500
New Transformer.3171046 phases=3 windings=2 Xhl=1.200
~ wdg=1 bus=12779-12811159.1.2.3 conn=delta Kv=13.8 Kva=112.5 %R=0.500
~ wdg=2 bus=3171046-12811159v.1.2.3.4 conn=wye Kv=0.2200 Kva=112.5 %R=0.500
New Transformer.3211762 phases=3 windings=2 Xhl=1.200
~ wdg=1 bus=12779-13196275.1.2.3 conn=delta Kv=13.8 Kva=75.0 %R=0.500
~ wdg=2 bus=3211762-13196287.1.2.3.4 conn=wye Kv=0.2200 Kva=75.0 %R=0.500
New Transformer.3211764 phases=3 windings=2 Xhl=1.200
~ wdg=1 bus=12779-13196277.1.2.3 conn=delta Kv=13.8 Kva=75.0 %R=0.500
~ wdg=2 bus=3211764-13196311.1.2.3.4 conn=wye Kv=0.2200 Kva=75.0 %R=0.500
New Transformer.3211763 phases=3 windings=2 Xhl=1.200
~ wdg=1 bus=12779-13196282.1.2.3 conn=delta Kv=13.8 Kva=112.5 %R=0.500
~ wdg=2 bus=3211763-13196317.1.2.3.4 conn=wye Kv=0.2200 Kva=112.5 %R=0.500
New Transformer.3124993 phases=3 windings=2 Xhl=1.200
~ wdg=1 bus=12779-8041522.1.2.3 conn=delta Kv=13.8 Kva=150.0 %R=0.500
~ wdg=2 bus=3124993-12432062.1.2.3.4 conn=wye Kv=0.2200 Kva=150.0 %R=0.500
New Transformer.2275838 phases=1 windings=3 Xhl=1.200 Xht=1.200 Xlt=0.600
~ wdg=1 bus=12779-8041550.2 conn=wye Kv=7.9674 Kva=10.0 %R=0.500
~ wdg=2 bus=2275838-8041551.1.4 conn=wye Kv=0.1100 Kva=10.0 %R=0.500
~ wdg=3 bus=2275838-8041551.4.2 conn=wye Kv=0.1100 Kva=10.0 %R=0.500
New Transformer.2275826 phases=1 windings=3 Xhl=1.200 Xht=1.200 Xlt=0.600
~ wdg=1 bus=12779-8041554.2 conn=wye Kv=7.9674 Kva=10.0 %R=0.500
~ wdg=2 bus=2275826-8041555.1.4 conn=wye Kv=0.1100 Kva=10.0 %R=0.500
~ wdg=3 bus=2275826-8041555.4.2 conn=wye Kv=0.1100 Kva=10.0 %R=0.500
New Transformer.2275959 phases=1 windings=3 Xhl=1.200 Xht=1.200 Xlt=0.600
~ wdg=1 bus=12779-8041558.2 conn=wye Kv=7.9674 Kva=5.0 %R=0.500
~ wdg=2 bus=2275959-8041559.1.4 conn=wye Kv=0.1100 Kva=5.0 %R=0.500
~ wdg=3 bus=2275959-8041559.4.2 conn=wye Kv=0.1100 Kva=5.0 %R=0.500
New Transformer.2275893 phases=1 windings=3 Xhl=1.200 Xht=1.200 Xlt=0.600
~ wdg=1 bus=12779-8041582.3 conn=wye Kv=7.9674 Kva=5.0 %R=0.500
~ wdg=2 bus=2275893-8041583.1.4 conn=wye Kv=0.1100 Kva=5.0 %R=0.500
~ wdg=3 bus=2275893-8041583.4.2 conn=wye Kv=0.1100 Kva=5.0 %R=0.500
New Transformer.2275883 phases=3 windings=2 Xhl=1.200
~ wdg=1 bus=12779-8041674.1.2.3 conn=delta Kv=13.8 Kva=75.0 %R=0.500
~ wdg=2 bus=2275883-8041675.1.2.3.4 conn=wye Kv=0.2200 Kva=75.0 %R=0.500
New Transformer.2275931 phases=1 windings=3 Xhl=1.200 Xht=1.200 Xlt=0.600
~ wdg=1 bus=12779-8041726.2 conn=wye Kv=7.9674 Kva=10.0 %R=0.500
~ wdg=2 bus=2275931-8041726v.1.4 conn=wye Kv=0.1100 Kva=10.0 %R=0.500
~ wdg=3 bus=2275931-8041726v.4.2 conn=wye Kv=0.1100 Kva=10.0 %R=0.500
New Transformer.2275815 phases=1 windings=3 Xhl=1.200 Xht=1.200 Xlt=0.600
~ wdg=1 bus=12779-8041727.2 conn=wye Kv=7.9674 Kva=10.0 %R=0.500
~ wdg=2 bus=2275815-8041728.1.4 conn=wye Kv=0.1100 Kva=10.0 %R=0.500
~ wdg=3 bus=2275815-8041728.4.2 conn=wye Kv=0.1100 Kva=10.0 %R=0.500
New Transformer.2275871 phases=1 windings=3 Xhl=1.200 Xht=1.200 Xlt=0.600
~ wdg=1 bus=12779-8041731.1 conn=wye Kv=7.9674 Kva=15.0 %R=0.500
~ wdg=2 bus=2275871-8041731v.1.4 conn=wye Kv=0.1100 Kva=15.0 %R=0.500
~ wdg=3 bus=2275871-8041731v.4.2 conn=wye Kv=0.1100 Kva=15.0 %R=0.500
New Transformer.2275962 phases=1 windings=3 Xhl=1.200 Xht=1.200 Xlt=0.600
~ wdg=1 bus=12779-8041732.3 conn=wye Kv=7.9674 Kva=15.0 %R=0.500
~ wdg=2 bus=2275962-8041732v.1.4 conn=wye Kv=0.1100 Kva=15.0 %R=0.500
~ wdg=3 bus=2275962-8041732v.4.2 conn=wye Kv=0.1100 Kva=15.0 %R=0.500
New Transformer.3089176 phases=3 windings=2 Xhl=1.200
~ wdg=1 bus=12779-8041733.1.2.3 conn=delta Kv=13.8 Kva=30.0 %R=0.500
~ wdg=2 bus=3089176-8041733v.1.2.3.4 conn=wye Kv=0.2200 Kva=30.0 %R=0.500
New Transformer.2275919 phases=3 windings=2 Xhl=1.200
~ wdg=1 bus=12779-8041850.1.2.3 conn=delta Kv=13.8 Kva=112.5 %R=0.500
~ wdg=2 bus=2275919-8041851.1.2.3.4 conn=wye Kv=0.2200 Kva=112.5 %R=0.500
New Transformer.2275923 phases=3 windings=2 Xhl=1.200
~ wdg=1 bus=12779-8041860.1.2.3 conn=delta Kv=13.8 Kva=75.0 %R=0.500
~ wdg=2 bus=2275923-8041861.1.2.3.4 conn=wye Kv=0.2200 Kva=75.0 %R=0.500
New Transformer.2275934 phases=1 windings=3 Xhl=1.200 Xht=1.200 Xlt=0.600
~ wdg=1 bus=12779-8041864.2 conn=wye Kv=7.9674 Kva=15.0 %R=0.500
~ wdg=2 bus=2275934-8041864v.1.4 conn=wye Kv=0.1100 Kva=15.0 %R=0.500
~ wdg=3 bus=2275934-8041864v.4.2 conn=wye Kv=0.1100 Kva=15.0 %R=0.500
New Transformer.2275851 phases=3 windings=2 Xhl=1.200
~ wdg=1 bus=12779-8042047.1.2.3 conn=delta Kv=13.8 Kva=112.5 %R=0.500
~ wdg=2 bus=2275851-8042048.1.2.3.4 conn=wye Kv=0.2200 Kva=112.5 %R=0.500
New Transformer.2275905 phases=3 windings=2 Xhl=1.200
~ wdg=1 bus=12779-8042094.1.2.3 conn=delta Kv=13.8 Kva=15.0 %R=0.500
~ wdg=2 bus=2275905-8042095.1.2.3.4 conn=wye Kv=0.2200 Kva=15.0 %R=0.500
New Transformer.2275881 phases=1 windings=3 Xhl=1.200 Xht=1.200 Xlt=0.600
~ wdg=1 bus=12779-8042096.2 conn=wye Kv=7.9674 Kva=10.0 %R=0.500
~ wdg=2 bus=2275881-8042097.1.4 conn=wye Kv=0.1100 Kva=10.0 %R=0.500
~ wdg=3 bus=2275881-8042097.4.2 conn=wye Kv=0.1100 Kva=10.0 %R=0.500
New Transformer.2275903 phases=1 windings=3 Xhl=1.200 Xht=1.200 Xlt=0.600
~ wdg=1 bus=12779-8042128.2 conn=wye Kv=7.9674 Kva=15.0 %R=0.500
~ wdg=2 bus=2275903-8042128v.1.4 conn=wye Kv=0.1100 Kva=15.0 %R=0.500
~ wdg=3 bus=2275903-8042128v.4.2 conn=wye Kv=0.1100 Kva=15.0 %R=0.500
New Transformer.2275817 phases=3 windings=2 Xhl=1.200
~ wdg=1 bus=12779-8042129.1.2.3 conn=delta Kv=13.8 Kva=150.0 %R=0.500
~ wdg=2 bus=2275817-8042130.1.2.3.4 conn=wye Kv=0.2200 Kva=150.0 %R=0.500
New Transformer.2275830 phases=3 windings=2 Xhl=1.200
~ wdg=1 bus=12779-8042136.1.2.3 conn=delta Kv=13.8 Kva=75.0 %R=0.500
~ wdg=2 bus=2275830-11896023.1.2.3.4 conn=wye Kv=0.2200 Kva=75.0 %R=0.500
New Transformer.2275935 phases=3 windings=2 Xhl=1.200
~ wdg=1 bus=12779-8042170.1.2.3 conn=delta Kv=13.8 Kva=112.5 %R=0.500
~ wdg=2 bus=2275935-8042171.1.2.3.4 conn=wye Kv=0.2200 Kva=112.5 %R=0.500
New Transformer.2275874 phases=3 windings=2 Xhl=1.200
~ wdg=1 bus=12779-8042174.1.2.3 conn=delta Kv=13.8 Kva=45.0 %R=0.500
~ wdg=2 bus=2275874-8042175.1.2.3.4 conn=wye Kv=0.2200 Kva=45.0 %R=0.500
New Transformer.2275933 phases=3 windings=2 Xhl=1.200
~ wdg=1 bus=12779-8042176.1.2.3 conn=delta Kv=13.8 Kva=45.0 %R=0.500
~ wdg=2 bus=2275933-8042177.1.2.3.4 conn=wye Kv=0.2200 Kva=45.0 %R=0.500
New Transformer.2275892 phases=3 windings=2 Xhl=1.200
~ wdg=1 bus=12779-8042178.1.2.3 conn=delta Kv=13.8 Kva=45.0 %R=0.500
~ wdg=2 bus=2275892-8042179.1.2.3.4 conn=wye Kv=0.2200 Kva=45.0 %R=0.500
New Transformer.2275859 phases=3 windings=2 Xhl=1.200
~ wdg=1 bus=12779-8042209.1.2.3 conn=delta Kv=13.8 Kva=75.0 %R=0.500
~ wdg=2 bus=2275859-8042210.1.2.3.4 conn=wye Kv=0.2200 Kva=75.0 %R=0.500
New Transformer.2275853 phases=1 windings=3 Xhl=1.200 Xht=1.200 Xlt=0.600
~ wdg=1 bus=12779-8042218.3 conn=wye Kv=7.9674 Kva=15.0 %R=0.500
~ wdg=2 bus=2275853-8042218v.1.4 conn=wye Kv=0.1100 Kva=15.0 %R=0.500
~ wdg=3 bus=2275853-8042218v.4.2 conn=wye Kv=0.1100 Kva=15.0 %R=0.500
New Transformer.2275914 phases=3 windings=2 Xhl=1.200
~ wdg=1 bus=12779-8042229.1.2.3 conn=delta Kv=13.8 Kva=75.0 %R=0.500
~ wdg=2 bus=2275914-8042229v.1.2.3.4 conn=wye Kv=0.2200 Kva=75.0 %R=0.500
New Transformer.2275951 phases=1 windings=3 Xhl=1.200 Xht=1.200 Xlt=0.600
~ wdg=1 bus=12779-8042230.2 conn=wye Kv=7.9674 Kva=5.0 %R=0.500
~ wdg=2 bus=2275951-8042230v.1.4 conn=wye Kv=0.1100 Kva=5.0 %R=0.500
~ wdg=3 bus=2275951-8042230v.4.2 conn=wye Kv=0.1100 Kva=5.0 %R=0.500
New Transformer.2275890 phases=1 windings=3 Xhl=1.200 Xht=1.200 Xlt=0.600
~ wdg=1 bus=12779-8042231.2 conn=wye Kv=7.9674 Kva=5.0 %R=0.500
~ wdg=2 bus=2275890-8042231v.1.4 conn=wye Kv=0.1100 Kva=5.0 %R=0.500
~ wdg=3 bus=2275890-8042231v.4.2 conn=wye Kv=0.1100 Kva=5.0 %R=0.500
New Transformer.2275885 phases=3 windings=2 Xhl=1.200
~ wdg=1 bus=12779-8042234.1.2.3 conn=delta Kv=13.8 Kva=75.0 %R=0.500
~ wdg=2 bus=2275885-11896025.1.2.3.4 conn=wye Kv=0.2200 Kva=75.0 %R=0.500
New Transformer.3132774 phases=3 windings=2 Xhl=1.200
~ wdg=1 bus=12779-8042314.1.2.3 conn=delta Kv=13.8 Kva=112.5 %R=0.500
~ wdg=2 bus=3132774-8042314v.1.2.3.4 conn=wye Kv=0.2200 Kva=112.5 %R=0.500
New Transformer.2275840 phases=1 windings=3 Xhl=1.200 Xht=1.200 Xlt=0.600
~ wdg=1 bus=12779-8042336.2 conn=wye Kv=7.9674 Kva=5.0 %R=0.500
~ wdg=2 bus=2275840-8042336v.1.4 conn=wye Kv=0.1100 Kva=5.0 %R=0.500
~ wdg=3 bus=2275840-8042336v.4.2 conn=wye Kv=0.1100 Kva=5.0 %R=0.500
New Transformer.2275948 phases=1 windings=3 Xhl=1.200 Xht=1.200 Xlt=0.600
~ wdg=1 bus=12779-8042343.2 conn=wye Kv=7.9674 Kva=10.0 %R=0.500
~ wdg=2 bus=2275948-8042344.1.4 conn=wye Kv=0.1100 Kva=10.0 %R=0.500
~ wdg=3 bus=2275948-8042344.4.2 conn=wye Kv=0.1100 Kva=10.0 %R=0.500
New Transformer.2275852 phases=3 windings=2 Xhl=1.200
~ wdg=1 bus=12779-8042439.1.2.3 conn=delta Kv=13.8 Kva=112.5 %R=0.500
~ wdg=2 bus=2275852-8042440.1.2.3.4 conn=wye Kv=0.2200 Kva=112.5 %R=0.500
New Transformer.2275930 phases=1 windings=3 Xhl=1.200 Xht=1.200 Xlt=0.600
~ wdg=1 bus=12779-8042466.2 conn=wye Kv=7.9674 Kva=5.0 %R=0.500
~ wdg=2 bus=2275930-8042466v.1.4 conn=wye Kv=0.1100 Kva=5.0 %R=0.500
~ wdg=3 bus=2275930-8042466v.4.2 conn=wye Kv=0.1100 Kva=5.0 %R=0.500
New Transformer.2275870 phases=1 windings=3 Xhl=1.200 Xht=1.200 Xlt=0.600
~ wdg=1 bus=12779-8042469.2 conn=wye Kv=7.9674 Kva=10.0 %R=0.500
~ wdg=2 bus=2275870-8042470.1.4 conn=wye Kv=0.1100 Kva=10.0 %R=0.500
~ wdg=3 bus=2275870-8042470.4.2 conn=wye Kv=0.1100 Kva=10.0 %R=0.500
New Transformer.2275882 phases=1 windings=3 Xhl=1.200 Xht=1.200 Xlt=0.600
~ wdg=1 bus=12779-8042473.2 conn=wye Kv=7.9674 Kva=5.0 %R=0.500
~ wdg=2 bus=2275882-8042474.1.4 conn=wye Kv=0.1100 Kva=5.0 %R=0.500
~ wdg=3 bus=2275882-8042474.4.2 conn=wye Kv=0.1100 Kva=5.0 %R=0.500
New Transformer.2275884 phases=1 windings=3 Xhl=1.200 Xht=1.200 Xlt=0.600
~ wdg=1 bus=12779-8042489.3 conn=wye Kv=7.9674 Kva=25.0 %R=0.500
~ wdg=2 bus=2275884-8042490.1.4 conn=wye Kv=0.1100 Kva=25.0 %R=0.500
~ wdg=3 bus=2275884-8042490.4.2 conn=wye Kv=0.1100 Kva=25.0 %R=0.500
New Transformer.2275828 phases=3 windings=2 Xhl=1.200
~ wdg=1 bus=12779-8042509.1.2.3 conn=delta Kv=13.8 Kva=75.0 %R=0.500
~ wdg=2 bus=2275828-8042510.1.2.3.4 conn=wye Kv=0.2200 Kva=75.0 %R=0.500
New Transformer.2275891 phases=1 windings=3 Xhl=1.200 Xht=1.200 Xlt=0.600
~ wdg=1 bus=12779-8042515.2 conn=wye Kv=7.9674 Kva=5.0 %R=0.500
~ wdg=2 bus=2275891-8042515v.1.4 conn=wye Kv=0.1100 Kva=5.0 %R=0.500
~ wdg=3 bus=2275891-8042515v.4.2 conn=wye Kv=0.1100 Kva=5.0 %R=0.500
New Transformer.3158792 phases=1 windings=3 Xhl=1.200 Xht=1.200 Xlt=0.600
~ wdg=1 bus=12779-8042517.2 conn=wye Kv=7.9674 Kva=10.0 %R=0.500
~ wdg=2 bus=3158792-13121029.1.4 conn=wye Kv=0.1100 Kva=10.0 %R=0.500
~ wdg=3 bus=3158792-13121029.4.2 conn=wye Kv=0.1100 Kva=10.0 %R=0.500
New Transformer.2275961 phases=1 windings=3 Xhl=1.200 Xht=1.200 Xlt=0.600
~ wdg=1 bus=12779-8042521.2 conn=wye Kv=7.9674 Kva=15.0 %R=0.500
~ wdg=2 bus=2275961-8042521v.1.4 conn=wye Kv=0.1100 Kva=15.0 %R=0.500
~ wdg=3 bus=2275961-8042521v.4.2 conn=wye Kv=0.1100 Kva=15.0 %R=0.500
New Transformer.2275819 phases=3 windings=2 Xhl=1.200
~ wdg=1 bus=12779-8042645.1.2.3 conn=delta Kv=13.8 Kva=300.0 %R=0.500
~ wdg=2 bus=2275819-8042646.1.2.3.4 conn=wye Kv=0.2200 Kva=300.0 %R=0.500
New Transformer.2275912 phases=1 windings=3 Xhl=1.200 Xht=1.200 Xlt=0.600
~ wdg=1 bus=12779-8042652.1 conn=wye Kv=7.9674 Kva=15.0 %R=0.500
~ wdg=2 bus=2275912-8042652v.1.4 conn=wye Kv=0.1100 Kva=15.0 %R=0.500
~ wdg=3 bus=2275912-8042652v.4.2 conn=wye Kv=0.1100 Kva=15.0 %R=0.500
New Transformer.2856477 phases=3 windings=2 Xhl=1.200
~ wdg=1 bus=12786-11312009.1.2.3 conn=delta Kv=13.8 Kva=45.0 %R=0.500
~ wdg=2 bus=2856477-8076860.1.2.3.4 conn=wye Kv=0.2200 Kva=45.0 %R=0.500
New Transformer.2898230 phases=3 windings=2 Xhl=1.200
~ wdg=1 bus=12786-11375020.1.2.3 conn=delta Kv=13.8 Kva=45.0 %R=0.500
~ wdg=2 bus=2898230-11375119.1.2.3.4 conn=wye Kv=0.2200 Kva=45.0 %R=0.500
New Transformer.2898233 phases=3 windings=2 Xhl=1.200
~ wdg=1 bus=12786-11375024.1.2.3 conn=delta Kv=13.8 Kva=45.0 %R=0.500
~ wdg=2 bus=2898233-11375106.1.2.3.4 conn=wye Kv=0.2200 Kva=45.0 %R=0.500
New Transformer.2898235 phases=3 windings=2 Xhl=1.200
~ wdg=1 bus=12786-11375039.1.2.3 conn=delta Kv=13.8 Kva=45.0 %R=0.500
~ wdg=2 bus=2898235-11375134.1.2.3.4 conn=wye Kv=0.2200 Kva=45.0 %R=0.500
New Transformer.2898229 phases=3 windings=2 Xhl=1.200
~ wdg=1 bus=12786-11375042.1.2.3 conn=delta Kv=13.8 Kva=45.0 %R=0.500
~ wdg=2 bus=2898229-11375081.1.2.3.4 conn=wye Kv=0.2200 Kva=45.0 %R=0.500
New Transformer.2919129 phases=3 windings=2 Xhl=1.200
~ wdg=1 bus=12786-11406282.1.2.3 conn=delta Kv=13.8 Kva=75.0 %R=0.500
~ wdg=2 bus=2919129-11406282v.1.2.3.4 conn=wye Kv=0.2200 Kva=75.0 %R=0.500
New Transformer.2952434 phases=3 windings=2 Xhl=1.200
~ wdg=1 bus=12786-11504535.1.2.3 conn=delta Kv=13.8 Kva=45.0 %R=0.500
~ wdg=2 bus=2952434-11504574.1.2.3.4 conn=wye Kv=0.2200 Kva=45.0 %R=0.500
New Transformer.2952433 phases=3 windings=2 Xhl=1.200
~ wdg=1 bus=12786-11504543.1.2.3 conn=delta Kv=13.8 Kva=45.0 %R=0.500
~ wdg=2 bus=2952433-11504577.1.2.3.4 conn=wye Kv=0.2200 Kva=45.0 %R=0.500
New Transformer.2952427 phases=3 windings=2 Xhl=1.200
~ wdg=1 bus=12786-11504556.1.2.3 conn=delta Kv=13.8 Kva=45.0 %R=0.500
~ wdg=2 bus=2952427-11504562.1.2.3.4 conn=wye Kv=0.2200 Kva=45.0 %R=0.500
New Transformer.3025364 phases=3 windings=2 Xhl=1.200
~ wdg=1 bus=12786-11872975.1.2.3 conn=delta Kv=13.8 Kva=45.0 %R=0.500
~ wdg=2 bus=3025364-11872975v.1.2.3.4 conn=wye Kv=0.2200 Kva=45.0 %R=0.500
New Transformer.3028692 phases=3 windings=2 Xhl=1.200
~ wdg=1 bus=12786-11895471.1.2.3 conn=delta Kv=13.8 Kva=45.0 %R=0.500
~ wdg=2 bus=3028692-11895472.1.2.3.4 conn=wye Kv=0.2200 Kva=45.0 %R=0.500
New Transformer.3028695 phases=3 windings=2 Xhl=1.200
~ wdg=1 bus=12786-11895474.1.2.3 conn=delta Kv=13.8 Kva=45.0 %R=0.500
~ wdg=2 bus=3028695-11895476.1.2.3.4 conn=wye Kv=0.2200 Kva=45.0 %R=0.500
New Transformer.3028696 phases=3 windings=2 Xhl=1.200
~ wdg=1 bus=12786-11895475.1.2.3 conn=delta Kv=13.8 Kva=45.0 %R=0.500
~ wdg=2 bus=3028696-11895478.1.2.3.4 conn=wye Kv=0.2200 Kva=45.0 %R=0.500
New Transformer.2898227 phases=3 windings=2 Xhl=1.200
~ wdg=1 bus=12786-12181608.1.2.3 conn=delta Kv=13.8 Kva=45.0 %R=0.500
~ wdg=2 bus=2898227-12181695.1.2.3.4 conn=wye Kv=0.2200 Kva=45.0 %R=0.500
New Transformer.2280773 phases=3 windings=2 Xhl=1.200
~ wdg=1 bus=12786-12181611.1.2.3 conn=delta Kv=13.8 Kva=45.0 %R=0.500
~ wdg=2 bus=2280773-12181721.1.2.3.4 conn=wye Kv=0.2200 Kva=45.0 %R=0.500
New Transformer.2281147 phases=3 windings=2 Xhl=1.200
~ wdg=1 bus=12786-12181617.1.2.3 conn=delta Kv=13.8 Kva=45.0 %R=0.500
~ wdg=2 bus=2281147-12181734.1.2.3.4 conn=wye Kv=0.2200 Kva=45.0 %R=0.500
New Transformer.2281185 phases=3 windings=2 Xhl=1.200
~ wdg=1 bus=12786-12181647.1.2.3 conn=delta Kv=13.8 Kva=75.0 %R=0.500
~ wdg=2 bus=2281185-12181743.1.2.3.4 conn=wye Kv=0.2200 Kva=75.0 %R=0.500
New Transformer.2281430 phases=3 windings=2 Xhl=1.200
~ wdg=1 bus=12786-12181665.1.2.3 conn=delta Kv=13.8 Kva=150.0 %R=0.500
~ wdg=2 bus=2281430-12181687.1.2.3.4 conn=wye Kv=0.2200 Kva=150.0 %R=0.500
New Transformer.2886232 phases=3 windings=2 Xhl=1.200
~ wdg=1 bus=12786-12181672.1.2.3 conn=delta Kv=13.8 Kva=45.0 %R=0.500
~ wdg=2 bus=2886232-12181730.1.2.3.4 conn=wye Kv=0.2200 Kva=45.0 %R=0.500
New Transformer.2281182 phases=3 windings=2 Xhl=1.200
~ wdg=1 bus=12786-12181684.1.2.3 conn=delta Kv=13.8 Kva=45.0 %R=0.500
~ wdg=2 bus=2281182-12181750.1.2.3.4 conn=wye Kv=0.2200 Kva=45.0 %R=0.500
New Transformer.3074295 phases=1 windings=3 Xhl=1.200 Xht=1.200 Xlt=0.600
~ wdg=1 bus=12786-12183306.3 conn=wye Kv=7.9674 Kva=10.0 %R=0.500
~ wdg=2 bus=3074295-12183306v.1.4 conn=wye Kv=0.1100 Kva=10.0 %R=0.500
~ wdg=3 bus=3074295-12183306v.4.2 conn=wye Kv=0.1100 Kva=10.0 %R=0.500
New Transformer.3120423 phases=3 windings=2 Xhl=1.200
~ wdg=1 bus=12786-12481774.1.2.3 conn=delta Kv=13.8 Kva=75.0 %R=0.500
~ wdg=2 bus=3120423-8077338.1.2.3.4 conn=wye Kv=0.2200 Kva=75.0 %R=0.500
New Transformer.3139125 phases=3 windings=2 Xhl=1.200
~ wdg=1 bus=12786-12532285.1.2.3 conn=delta Kv=13.8 Kva=75.0 %R=0.500
~ wdg=2 bus=3139125-12532285v.1.2.3.4 conn=wye Kv=0.2200 Kva=75.0 %R=0.500
New Transformer.3028690 phases=3 windings=2 Xhl=1.200
~ wdg=1 bus=12786-12578017.1.2.3 conn=delta Kv=13.8 Kva=45.0 %R=0.500
~ wdg=2 bus=3028690-12578449.1.2.3.4 conn=wye Kv=0.2200 Kva=45.0 %R=0.500
New Transformer.3136897 phases=3 windings=2 Xhl=1.200
~ wdg=1 bus=12786-12578300.1.2.3 conn=delta Kv=13.8 Kva=45.0 %R=0.500
~ wdg=2 bus=3136897-12578373.1.2.3.4 conn=wye Kv=0.2200 Kva=45.0 %R=0.500
New Transformer.2281196 phases=3 windings=2 Xhl=1.200
~ wdg=1 bus=12786-8074060.1.2.3 conn=delta Kv=13.8 Kva=75.0 %R=0.500
~ wdg=2 bus=2281196-8074061.1.2.3.4 conn=wye Kv=0.2200 Kva=75.0 %R=0.500
New Transformer.2281206 phases=1 windings=3 Xhl=1.200 Xht=1.200 Xlt=0.600
~ wdg=1 bus=12786-8074206.2 conn=wye Kv=7.9674 Kva=10.0 %R=0.500
~ wdg=2 bus=2281206-8074207.1.4 conn=wye Kv=0.1100 Kva=10.0 %R=0.500
~ wdg=3 bus=2281206-8074207.4.2 conn=wye Kv=0.1100 Kva=10.0 %R=0.500
New Transformer.2280808 phases=3 windings=2 Xhl=1.200
~ wdg=1 bus=12786-8074284.1.2.3 conn=delta Kv=13.8 Kva=45.0 %R=0.500
~ wdg=2 bus=2280808-8074285.1.2.3.4 conn=wye Kv=0.2200 Kva=45.0 %R=0.500
New Transformer.2281254 phases=3 windings=2 Xhl=1.200
~ wdg=1 bus=12786-8074286.1.2.3 conn=delta Kv=13.8 Kva=45.0 %R=0.500
~ wdg=2 bus=2281254-8074287.1.2.3.4 conn=wye Kv=0.2200 Kva=45.0 %R=0.500
New Transformer.2280829 phases=1 windings=3 Xhl=1.200 Xht=1.200 Xlt=0.600
~ wdg=1 bus=12786-8074380.3 conn=wye Kv=7.9674 Kva=5.0 %R=0.500
~ wdg=2 bus=2280829-8074380v.1.4 conn=wye Kv=0.1100 Kva=5.0 %R=0.500
~ wdg=3 bus=2280829-8074380v.4.2 conn=wye Kv=0.1100 Kva=5.0 %R=0.500
New Transformer.2280913 phases=1 windings=3 Xhl=1.200 Xht=1.200 Xlt=0.600
~ wdg=1 bus=12786-8074381.1 conn=wye Kv=7.9674 Kva=5.0 %R=0.500
~ wdg=2 bus=2280913-8074381v.1.4 conn=wye Kv=0.1100 Kva=5.0 %R=0.500
~ wdg=3 bus=2280913-8074381v.4.2 conn=wye Kv=0.1100 Kva=5.0 %R=0.500
New Transformer.2281443 phases=1 windings=3 Xhl=1.200 Xht=1.200 Xlt=0.600
~ wdg=1 bus=12786-8074578.1 conn=wye Kv=7.9674 Kva=5.0 %R=0.500
~ wdg=2 bus=2281443-8074578v.1.4 conn=wye Kv=0.1100 Kva=5.0 %R=0.500
~ wdg=3 bus=2281443-8074578v.4.2 conn=wye Kv=0.1100 Kva=5.0 %R=0.500
New Transformer.2281227 phases=1 windings=3 Xhl=1.200 Xht=1.200 Xlt=0.600
~ wdg=1 bus=12786-8074591.2 conn=wye Kv=7.9674 Kva=5.0 %R=0.500
~ wdg=2 bus=2281227-8074592.1.4 conn=wye Kv=0.1100 Kva=5.0 %R=0.500
~ wdg=3 bus=2281227-8074592.4.2 conn=wye Kv=0.1100 Kva=5.0 %R=0.500
New Transformer.2281444 phases=1 windings=3 Xhl=1.200 Xht=1.200 Xlt=0.600
~ wdg=1 bus=12786-8074630.1 conn=wye Kv=7.9674 Kva=10.0 %R=0.500
~ wdg=2 bus=2281444-8074631.1.4 conn=wye Kv=0.1100 Kva=10.0 %R=0.500
~ wdg=3 bus=2281444-8074631.4.2 conn=wye Kv=0.1100 Kva=10.0 %R=0.500
New Transformer.2281017 phases=3 windings=2 Xhl=1.200
~ wdg=1 bus=12786-8074933.1.2.3 conn=delta Kv=13.8 Kva=75.0 %R=0.500
~ wdg=2 bus=2281017-8074934.1.2.3.4 conn=wye Kv=0.2200 Kva=75.0 %R=0.500
New Transformer.2281310 phases=1 windings=3 Xhl=1.200 Xht=1.200 Xlt=0.600
~ wdg=1 bus=12786-8074935.2 conn=wye Kv=7.9674 Kva=15.0 %R=0.500
~ wdg=2 bus=2281310-8074935v.1.4 conn=wye Kv=0.1100 Kva=15.0 %R=0.500
~ wdg=3 bus=2281310-8074935v.4.2 conn=wye Kv=0.1100 Kva=15.0 %R=0.500
New Transformer.2280858 phases=1 windings=3 Xhl=1.200 Xht=1.200 Xlt=0.600
~ wdg=1 bus=12786-8074941.3 conn=wye Kv=7.9674 Kva=5.0 %R=0.500
~ wdg=2 bus=2280858-8074941v.1.4 conn=wye Kv=0.1100 Kva=5.0 %R=0.500
~ wdg=3 bus=2280858-8074941v.4.2 conn=wye Kv=0.1100 Kva=5.0 %R=0.500
New Transformer.2280843 phases=3 windings=2 Xhl=1.200
~ wdg=1 bus=12786-8074951.1.2.3 conn=delta Kv=13.8 Kva=75.0 %R=0.500
~ wdg=2 bus=2280843-8074952.1.2.3.4 conn=wye Kv=0.2200 Kva=75.0 %R=0.500
New Transformer.2280899 phases=1 windings=3 Xhl=1.200 Xht=1.200 Xlt=0.600
~ wdg=1 bus=12786-8074954.2 conn=wye Kv=7.9674 Kva=5.0 %R=0.500
~ wdg=2 bus=2280899-8074954v.1.4 conn=wye Kv=0.1100 Kva=5.0 %R=0.500
~ wdg=3 bus=2280899-8074954v.4.2 conn=wye Kv=0.1100 Kva=5.0 %R=0.500
New Transformer.2281256 phases=3 windings=2 Xhl=1.200
~ wdg=1 bus=12786-8074963.1.2.3 conn=delta Kv=13.8 Kva=45.0 %R=0.500
~ wdg=2 bus=2281256-8074964.1.2.3.4 conn=wye Kv=0.2200 Kva=45.0 %R=0.500
New Transformer.2281369 phases=1 windings=3 Xhl=1.200 Xht=1.200 Xlt=0.600
~ wdg=1 bus=12786-8074966.2 conn=wye Kv=7.9674 Kva=10.0 %R=0.500
~ wdg=2 bus=2281369-8074966v.1.4 conn=wye Kv=0.1100 Kva=10.0 %R=0.500
~ wdg=3 bus=2281369-8074966v.4.2 conn=wye Kv=0.1100 Kva=10.0 %R=0.500
New Transformer.2280905 phases=1 windings=3 Xhl=1.200 Xht=1.200 Xlt=0.600
~ wdg=1 bus=12786-8074970.2 conn=wye Kv=7.9674 Kva=10.0 %R=0.500
~ wdg=2 bus=2280905-8074970v.1.4 conn=wye Kv=0.1100 Kva=10.0 %R=0.500
~ wdg=3 bus=2280905-8074970v.4.2 conn=wye Kv=0.1100 Kva=10.0 %R=0.500
New Transformer.2281295 phases=3 windings=2 Xhl=1.200
~ wdg=1 bus=12786-8075268.1.2.3 conn=delta Kv=13.8 Kva=75.0 %R=0.500
~ wdg=2 bus=2281295-8075269.1.2.3.4 conn=wye Kv=0.2200 Kva=75.0 %R=0.500
New Transformer.2280929 phases=3 windings=2 Xhl=1.200
~ wdg=1 bus=12786-8075391.1.2.3 conn=delta Kv=13.8 Kva=75.0 %R=0.500
~ wdg=2 bus=2280929-8075392.1.2.3.4 conn=wye Kv=0.2200 Kva=75.0 %R=0.500
New Transformer.2281187 phases=3 windings=2 Xhl=1.200
~ wdg=1 bus=12786-8075395.1.2.3 conn=delta Kv=13.8 Kva=75.0 %R=0.500
~ wdg=2 bus=2281187-8075396.1.2.3.4 conn=wye Kv=0.2200 Kva=75.0 %R=0.500
New Transformer.2280934 phases=3 windings=2 Xhl=1.200
~ wdg=1 bus=12786-8075403.1.2.3 conn=delta Kv=13.8 Kva=75.0 %R=0.500
~ wdg=2 bus=2280934-8075404.1.2.3.4 conn=wye Kv=0.2200 Kva=75.0 %R=0.500
New Transformer.2281273 phases=1 windings=3 Xhl=1.200 Xht=1.200 Xlt=0.600
~ wdg=1 bus=12786-8075406.2 conn=wye Kv=7.9674 Kva=10.0 %R=0.500
~ wdg=2 bus=2281273-8075406v.1.4 conn=wye Kv=0.1100 Kva=10.0 %R=0.500
~ wdg=3 bus=2281273-8075406v.4.2 conn=wye Kv=0.1100 Kva=10.0 %R=0.500
New Transformer.2280782 phases=3 windings=2 Xhl=1.200
~ wdg=1 bus=12786-8075469.1.2.3 conn=delta Kv=13.8 Kva=75.0 %R=0.500
~ wdg=2 bus=2280782-8075470.1.2.3.4 conn=wye Kv=0.2200 Kva=75.0 %R=0.500
New Transformer.2280879 phases=1 windings=3 Xhl=1.200 Xht=1.200 Xlt=0.600
~ wdg=1 bus=12786-8075563.2 conn=wye Kv=7.9674 Kva=5.0 %R=0.500
~ wdg=2 bus=2280879-8075564.1.4 conn=wye Kv=0.1100 Kva=5.0 %R=0.500
~ wdg=3 bus=2280879-8075564.4.2 conn=wye Kv=0.1100 Kva=5.0 %R=0.500
New Transformer.2281313 phases=1 windings=3 Xhl=1.200 Xht=1.200 Xlt=0.600
~ wdg=1 bus=12786-8075593.2 conn=wye Kv=7.9674 Kva=5.0 %R=0.500
~ wdg=2 bus=2281313-8075593v.1.4 conn=wye Kv=0.1100 Kva=5.0 %R=0.500
~ wdg=3 bus=2281313-8075593v.4.2 conn=wye Kv=0.1100 Kva=5.0 %R=0.500
New Transformer.2280900 phases=1 windings=3 Xhl=1.200 Xht=1.200 Xlt=0.600
~ wdg=1 bus=12786-8075619.2 conn=wye Kv=7.9674 Kva=10.0 %R=0.500
~ wdg=2 bus=2280900-8075619v.1.4 conn=wye Kv=0.1100 Kva=10.0 %R=0.500
~ wdg=3 bus=2280900-8075619v.4.2 conn=wye Kv=0.1100 Kva=10.0 %R=0.500
New Transformer.2281285 phases=3 windings=2 Xhl=1.200
~ wdg=1 bus=12786-8075670.1.2.3 conn=delta Kv=13.8 Kva=150.0 %R=0.500
~ wdg=2 bus=2281285-8075671.1.2.3.4 conn=wye Kv=0.2200 Kva=150.0 %R=0.500
New Transformer.2281012 phases=1 windings=3 Xhl=1.200 Xht=1.200 Xlt=0.600
~ wdg=1 bus=12786-8075692.2 conn=wye Kv=7.9674 Kva=15.0 %R=0.500
~ wdg=2 bus=2281012-8075693.1.4 conn=wye Kv=0.1100 Kva=15.0 %R=0.500
~ wdg=3 bus=2281012-8075693.4.2 conn=wye Kv=0.1100 Kva=15.0 %R=0.500
New Transformer.2281437 phases=3 windings=2 Xhl=1.200
~ wdg=1 bus=12786-8075782.1.2.3 conn=delta Kv=13.8 Kva=112.5 %R=0.500
~ wdg=2 bus=2281437-8075783.1.2.3.4 conn=wye Kv=0.2200 Kva=112.5 %R=0.500
New Transformer.2281440 phases=3 windings=2 Xhl=1.200
~ wdg=1 bus=12786-8075784.1.2.3 conn=delta Kv=13.8 Kva=45.0 %R=0.500
~ wdg=2 bus=2281440-8075785.1.2.3.4 conn=wye Kv=0.2200 Kva=45.0 %R=0.500
New Transformer.2280815 phases=3 windings=2 Xhl=1.200
~ wdg=1 bus=12786-8075805.1.2.3 conn=delta Kv=13.8 Kva=75.0 %R=0.500
~ wdg=2 bus=2280815-8075805v.1.2.3.4 conn=wye Kv=0.2200 Kva=75.0 %R=0.500
New Transformer.2281010 phases=1 windings=3 Xhl=1.200 Xht=1.200 Xlt=0.600
~ wdg=1 bus=12786-8075807.2 conn=wye Kv=7.9674 Kva=10.0 %R=0.500
~ wdg=2 bus=2281010-8075807v.1.4 conn=wye Kv=0.1100 Kva=10.0 %R=0.500
~ wdg=3 bus=2281010-8075807v.4.2 conn=wye Kv=0.1100 Kva=10.0 %R=0.500
New Transformer.2281363 phases=1 windings=3 Xhl=1.200 Xht=1.200 Xlt=0.600
~ wdg=1 bus=12786-8075808.2 conn=wye Kv=7.9674 Kva=5.0 %R=0.500
~ wdg=2 bus=2281363-8075808v.1.4 conn=wye Kv=0.1100 Kva=5.0 %R=0.500
~ wdg=3 bus=2281363-8075808v.4.2 conn=wye Kv=0.1100 Kva=5.0 %R=0.500
New Transformer.2281442 phases=1 windings=3 Xhl=1.200 Xht=1.200 Xlt=0.600
~ wdg=1 bus=12786-8075825.2 conn=wye Kv=7.9674 Kva=5.0 %R=0.500
~ wdg=2 bus=2281442-8075825v.1.4 conn=wye Kv=0.1100 Kva=5.0 %R=0.500
~ wdg=3 bus=2281442-8075825v.4.2 conn=wye Kv=0.1100 Kva=5.0 %R=0.500
New Transformer.2281027 phases=1 windings=3 Xhl=1.200 Xht=1.200 Xlt=0.600
~ wdg=1 bus=12786-8075828.2 conn=wye Kv=7.9674 Kva=25.0 %R=0.500
~ wdg=2 bus=2281027-8075828v.1.4 conn=wye Kv=0.1100 Kva=25.0 %R=0.500
~ wdg=3 bus=2281027-8075828v.4.2 conn=wye Kv=0.1100 Kva=25.0 %R=0.500
New Transformer.2281144 phases=3 windings=2 Xhl=1.200
~ wdg=1 bus=12786-8075936.1.2.3 conn=delta Kv=13.8 Kva=45.0 %R=0.500
~ wdg=2 bus=2281144-8075937.1.2.3.4 conn=wye Kv=0.2200 Kva=45.0 %R=0.500
New Transformer.2280920 phases=3 windings=2 Xhl=1.200
~ wdg=1 bus=12786-8075938.1.2.3 conn=delta Kv=13.8 Kva=75.0 %R=0.500
~ wdg=2 bus=2280920-8075939.1.2.3.4 conn=wye Kv=0.2200 Kva=75.0 %R=0.500
New Transformer.2281381 phases=3 windings=2 Xhl=1.200
~ wdg=1 bus=12786-8075942.1.2.3 conn=delta Kv=13.8 Kva=75.0 %R=0.500
~ wdg=2 bus=2281381-8075942v.1.2.3.4 conn=wye Kv=0.2200 Kva=75.0 %R=0.500
New Transformer.2280912 phases=1 windings=3 Xhl=1.200 Xht=1.200 Xlt=0.600
~ wdg=1 bus=12786-8076094.2 conn=wye Kv=7.9674 Kva=10.0 %R=0.500
~ wdg=2 bus=2280912-8076095.1.4 conn=wye Kv=0.1100 Kva=10.0 %R=0.500
~ wdg=3 bus=2280912-8076095.4.2 conn=wye Kv=0.1100 Kva=10.0 %R=0.500
New Transformer.3134486 phases=3 windings=2 Xhl=1.200
~ wdg=1 bus=12786-8076164.1.2.3 conn=delta Kv=13.8 Kva=150.0 %R=0.500
~ wdg=2 bus=3134486-8076164v.1.2.3.4 conn=wye Kv=0.2200 Kva=150.0 %R=0.500
New Transformer.2280898 phases=1 windings=3 Xhl=1.200 Xht=1.200 Xlt=0.600
~ wdg=1 bus=12786-8076165.2 conn=wye Kv=7.9674 Kva=10.0 %R=0.500
~ wdg=2 bus=2280898-8076165v.1.4 conn=wye Kv=0.1100 Kva=10.0 %R=0.500
~ wdg=3 bus=2280898-8076165v.4.2 conn=wye Kv=0.1100 Kva=10.0 %R=0.500
New Transformer.2281304 phases=1 windings=3 Xhl=1.200 Xht=1.200 Xlt=0.600
~ wdg=1 bus=12786-8076197.1 conn=wye Kv=7.9674 Kva=5.0 %R=0.500
~ wdg=2 bus=2281304-8076197v.1.4 conn=wye Kv=0.1100 Kva=5.0 %R=0.500
~ wdg=3 bus=2281304-8076197v.4.2 conn=wye Kv=0.1100 Kva=5.0 %R=0.500
New Transformer.2281436 phases=3 windings=2 Xhl=1.200
~ wdg=1 bus=12786-8076253.1.2.3 conn=delta Kv=13.8 Kva=75.0 %R=0.500
~ wdg=2 bus=2281436-8076254.1.2.3.4 conn=wye Kv=0.2200 Kva=75.0 %R=0.500
New Transformer.2281052 phases=1 windings=3 Xhl=1.200 Xht=1.200 Xlt=0.600
~ wdg=1 bus=12786-8076268.2 conn=wye Kv=7.9674 Kva=5.0 %R=0.500
~ wdg=2 bus=2281052-8076268v.1.4 conn=wye Kv=0.1100 Kva=5.0 %R=0.500
~ wdg=3 bus=2281052-8076268v.4.2 conn=wye Kv=0.1100 Kva=5.0 %R=0.500
New Transformer.2281210 phases=1 windings=3 Xhl=1.200 Xht=1.200 Xlt=0.600
~ wdg=1 bus=12786-8076269.2 conn=wye Kv=7.9674 Kva=5.0 %R=0.500
~ wdg=2 bus=2281210-8076269v.1.4 conn=wye Kv=0.1100 Kva=5.0 %R=0.500
~ wdg=3 bus=2281210-8076269v.4.2 conn=wye Kv=0.1100 Kva=5.0 %R=0.500
New Transformer.2280877 phases=1 windings=3 Xhl=1.200 Xht=1.200 Xlt=0.600
~ wdg=1 bus=12786-8076270.2 conn=wye Kv=7.9674 Kva=5.0 %R=0.500
~ wdg=2 bus=2280877-8076270v.1.4 conn=wye Kv=0.1100 Kva=5.0 %R=0.500
~ wdg=3 bus=2280877-8076270v.4.2 conn=wye Kv=0.1100 Kva=5.0 %R=0.500
New Transformer.2281179 phases=3 windings=2 Xhl=1.200
~ wdg=1 bus=12786-8076286.1.2.3 conn=delta Kv=13.8 Kva=75.0 %R=0.500
~ wdg=2 bus=2281179-8076287.1.2.3.4 conn=wye Kv=0.2200 Kva=75.0 %R=0.500
New Transformer.2281103 phases=1 windings=3 Xhl=1.200 Xht=1.200 Xlt=0.600
~ wdg=1 bus=12786-8076300.2 conn=wye Kv=7.9674 Kva=5.0 %R=0.500
~ wdg=2 bus=2281103-8076300v.1.4 conn=wye Kv=0.1100 Kva=5.0 %R=0.500
~ wdg=3 bus=2281103-8076300v.4.2 conn=wye Kv=0.1100 Kva=5.0 %R=0.500
New Transformer.2281357 phases=3 windings=2 Xhl=1.200
~ wdg=1 bus=12786-8076660.1.2.3 conn=delta Kv=13.8 Kva=45.0 %R=0.500
~ wdg=2 bus=2281357-8076661.1.2.3.4 conn=wye Kv=0.2200 Kva=45.0 %R=0.500
New Transformer.2281402 phases=3 windings=2 Xhl=1.200
~ wdg=1 bus=12786-8076756.1.2.3 conn=delta Kv=13.8 Kva=75.0 %R=0.500
~ wdg=2 bus=2281402-8076756v.1.2.3.4 conn=wye Kv=0.2200 Kva=75.0 %R=0.500
New Transformer.2280935 phases=3 windings=2 Xhl=1.200
~ wdg=1 bus=12786-8076757.1.2.3 conn=delta Kv=13.8 Kva=75.0 %R=0.500
~ wdg=2 bus=2280935-8076757v.1.2.3.4 conn=wye Kv=0.2200 Kva=75.0 %R=0.500
New Transformer.2281092 phases=3 windings=2 Xhl=1.200
~ wdg=1 bus=12786-8076761.1.2.3 conn=delta Kv=13.8 Kva=45.0 %R=0.500
~ wdg=2 bus=2281092-8076762.1.2.3.4 conn=wye Kv=0.2200 Kva=45.0 %R=0.500
New Transformer.2281415 phases=3 windings=2 Xhl=1.200
~ wdg=1 bus=12786-8076763.1.2.3 conn=delta Kv=13.8 Kva=112.5 %R=0.500
~ wdg=2 bus=2281415-8076763v.1.2.3.4 conn=wye Kv=0.2200 Kva=112.5 %R=0.500
New Transformer.2280874 phases=1 windings=3 Xhl=1.200 Xht=1.200 Xlt=0.600
~ wdg=1 bus=12786-8076771.2 conn=wye Kv=7.9674 Kva=5.0 %R=0.500
~ wdg=2 bus=2280874-8076771v.1.4 conn=wye Kv=0.1100 Kva=5.0 %R=0.500
~ wdg=3 bus=2280874-8076771v.4.2 conn=wye Kv=0.1100 Kva=5.0 %R=0.500
New Transformer.2281151 phases=1 windings=3 Xhl=1.200 Xht=1.200 Xlt=0.600
~ wdg=1 bus=12786-8076775.2 conn=wye Kv=7.9674 Kva=15.0 %R=0.500
~ wdg=2 bus=2281151-8076775v.1.4 conn=wye Kv=0.1100 Kva=15.0 %R=0.500
~ wdg=3 bus=2281151-8076775v.4.2 conn=wye Kv=0.1100 Kva=15.0 %R=0.500
New Transformer.2281432 phases=1 windings=3 Xhl=1.200 Xht=1.200 Xlt=0.600
~ wdg=1 bus=12786-8076776.2 conn=wye Kv=7.9674 Kva=5.0 %R=0.500
~ wdg=2 bus=2281432-8076776v.1.4 conn=wye Kv=0.1100 Kva=5.0 %R=0.500
~ wdg=3 bus=2281432-8076776v.4.2 conn=wye Kv=0.1100 Kva=5.0 %R=0.500
New Transformer.2280991 phases=1 windings=3 Xhl=1.200 Xht=1.200 Xlt=0.600
~ wdg=1 bus=12786-8076777.2 conn=wye Kv=7.9674 Kva=5.0 %R=0.500
~ wdg=2 bus=2280991-8076777v.1.4 conn=wye Kv=0.1100 Kva=5.0 %R=0.500
~ wdg=3 bus=2280991-8076777v.4.2 conn=wye Kv=0.1100 Kva=5.0 %R=0.500
New Transformer.2281388 phases=1 windings=3 Xhl=1.200 Xht=1.200 Xlt=0.600
~ wdg=1 bus=12786-8076778.2 conn=wye Kv=7.9674 Kva=5.0 %R=0.500
~ wdg=2 bus=2281388-8076778v.1.4 conn=wye Kv=0.1100 Kva=5.0 %R=0.500
~ wdg=3 bus=2281388-8076778v.4.2 conn=wye Kv=0.1100 Kva=5.0 %R=0.500
New Transformer.2281036 phases=1 windings=3 Xhl=1.200 Xht=1.200 Xlt=0.600
~ wdg=1 bus=12786-8076785.2 conn=wye Kv=7.9674 Kva=15.0 %R=0.500
~ wdg=2 bus=2281036-8076785v.1.4 conn=wye Kv=0.1100 Kva=15.0 %R=0.500
~ wdg=3 bus=2281036-8076785v.4.2 conn=wye Kv=0.1100 Kva=15.0 %R=0.500
New Transformer.2281268 phases=1 windings=3 Xhl=1.200 Xht=1.200 Xlt=0.600
~ wdg=1 bus=12786-8076786.2 conn=wye Kv=7.9674 Kva=10.0 %R=0.500
~ wdg=2 bus=2281268-8076786v.1.4 conn=wye Kv=0.1100 Kva=10.0 %R=0.500
~ wdg=3 bus=2281268-8076786v.4.2 conn=wye Kv=0.1100 Kva=10.0 %R=0.500
New Transformer.2281386 phases=3 windings=2 Xhl=1.200
~ wdg=1 bus=12786-8077012.1.2.3 conn=delta Kv=13.8 Kva=112.5 %R=0.500
~ wdg=2 bus=2281386-8077013.1.2.3.4 conn=wye Kv=0.2200 Kva=112.5 %R=0.500
New Transformer.2281441 phases=3 windings=2 Xhl=1.200
~ wdg=1 bus=12786-8077014.1.2.3 conn=delta Kv=13.8 Kva=75.0 %R=0.500
~ wdg=2 bus=2281441-8077015.1.2.3.4 conn=wye Kv=0.2200 Kva=75.0 %R=0.500
New Transformer.2281031 phases=1 windings=3 Xhl=1.200 Xht=1.200 Xlt=0.600
~ wdg=1 bus=12786-8077358.2 conn=wye Kv=7.9674 Kva=5.0 %R=0.500
~ wdg=2 bus=2281031-8077358v.1.4 conn=wye Kv=0.1100 Kva=5.0 %R=0.500
~ wdg=3 bus=2281031-8077358v.4.2 conn=wye Kv=0.1100 Kva=5.0 %R=0.500
New Transformer.2280849 phases=3 windings=2 Xhl=1.200
~ wdg=1 bus=12786-8077385.1.2.3 conn=delta Kv=13.8 Kva=75.0 %R=0.500
~ wdg=2 bus=2280849-11862719.1.2.3.4 conn=wye Kv=0.2200 Kva=75.0 %R=0.500
New Transformer.2280822 phases=1 windings=3 Xhl=1.200 Xht=1.200 Xlt=0.600
~ wdg=1 bus=12786-8077387.2 conn=wye Kv=7.9674 Kva=15.0 %R=0.500
~ wdg=2 bus=2280822-8077387v.1.4 conn=wye Kv=0.1100 Kva=15.0 %R=0.500
~ wdg=3 bus=2280822-8077387v.4.2 conn=wye Kv=0.1100 Kva=15.0 %R=0.500
New Transformer.2280896 phases=3 windings=2 Xhl=1.200
~ wdg=1 bus=12786-8077399.1.2.3 conn=delta Kv=13.8 Kva=45.0 %R=0.500
~ wdg=2 bus=2280896-8077400.1.2.3.4 conn=wye Kv=0.2200 Kva=45.0 %R=0.500
New Transformer.2281284 phases=3 windings=2 Xhl=1.200
~ wdg=1 bus=12786-8077401.1.2.3 conn=delta Kv=13.8 Kva=150.0 %R=0.500
~ wdg=2 bus=2281284-8077402.1.2.3.4 conn=wye Kv=0.2200 Kva=150.0 %R=0.500
New Transformer.2281145 phases=3 windings=2 Xhl=1.200
~ wdg=1 bus=12786-8077405.1.2.3 conn=delta Kv=13.8 Kva=45.0 %R=0.500
~ wdg=2 bus=2281145-8077406.1.2.3.4 conn=wye Kv=0.2200 Kva=45.0 %R=0.500
New Transformer.2281111 phases=1 windings=3 Xhl=1.200 Xht=1.200 Xlt=0.600
~ wdg=1 bus=12786-8077417.2 conn=wye Kv=7.9674 Kva=10.0 %R=0.500
~ wdg=2 bus=2281111-12536073.1.4 conn=wye Kv=0.1100 Kva=10.0 %R=0.500
~ wdg=3 bus=2281111-12536073.4.2 conn=wye Kv=0.1100 Kva=10.0 %R=0.500
New Transformer.2280922 phases=3 windings=2 Xhl=1.200
~ wdg=1 bus=12786-8077552.1.2.3 conn=delta Kv=13.8 Kva=75.0 %R=0.500
~ wdg=2 bus=2280922-12043383.1.2.3.4 conn=wye Kv=0.2200 Kva=75.0 %R=0.500
New Transformer.2281186 phases=3 windings=2 Xhl=1.200
~ wdg=1 bus=12786-8077615.1.2.3 conn=delta Kv=13.8 Kva=75.0 %R=0.500
~ wdg=2 bus=2281186-8077616.1.2.3.4 conn=wye Kv=0.2200 Kva=75.0 %R=0.500
New Transformer.2280848 phases=3 windings=2 Xhl=1.200
~ wdg=1 bus=12786-8077621.1.2.3 conn=delta Kv=13.8 Kva=150.0 %R=0.500
~ wdg=2 bus=2280848-8077622.1.2.3.4 conn=wye Kv=0.2200 Kva=150.0 %R=0.500
New Transformer.2280774 phases=3 windings=2 Xhl=1.200
~ wdg=1 bus=12786-8077723.1.2.3 conn=delta Kv=13.8 Kva=1000.0 %R=0.500
~ wdg=2 bus=2280774-8077723v.1.2.3.4 conn=wye Kv=0.2200 Kva=1000.0 %R=0.500
New Transformer.2281000 phases=1 windings=3 Xhl=1.200 Xht=1.200 Xlt=0.600
~ wdg=1 bus=12786-8077730.2 conn=wye Kv=7.9674 Kva=5.0 %R=0.500
~ wdg=2 bus=2281000-8077730v.1.4 conn=wye Kv=0.1100 Kva=5.0 %R=0.500
~ wdg=3 bus=2281000-8077730v.4.2 conn=wye Kv=0.1100 Kva=5.0 %R=0.500
New Transformer.2281128 phases=1 windings=3 Xhl=1.200 Xht=1.200 Xlt=0.600
~ wdg=1 bus=12786-8077732.3 conn=wye Kv=7.9674 Kva=5.0 %R=0.500
~ wdg=2 bus=2281128-8077732v.1.4 conn=wye Kv=0.1100 Kva=5.0 %R=0.500
~ wdg=3 bus=2281128-8077732v.4.2 conn=wye Kv=0.1100 Kva=5.0 %R=0.500
New Transformer.2281276 phases=1 windings=3 Xhl=1.200 Xht=1.200 Xlt=0.600
~ wdg=1 bus=12786-8077738.3 conn=wye Kv=7.9674 Kva=5.0 %R=0.500
~ wdg=2 bus=2281276-8077738v.1.4 conn=wye Kv=0.1100 Kva=5.0 %R=0.500
~ wdg=3 bus=2281276-8077738v.4.2 conn=wye Kv=0.1100 Kva=5.0 %R=0.500
New Transformer.2281231 phases=1 windings=3 Xhl=1.200 Xht=1.200 Xlt=0.600
~ wdg=1 bus=12786-8077739.2 conn=wye Kv=7.9674 Kva=5.0 %R=0.500
~ wdg=2 bus=2281231-8077739v.1.4 conn=wye Kv=0.1100 Kva=5.0 %R=0.500
~ wdg=3 bus=2281231-8077739v.4.2 conn=wye Kv=0.1100 Kva=5.0 %R=0.500
New Transformer.2280988 phases=1 windings=3 Xhl=1.200 Xht=1.200 Xlt=0.600
~ wdg=1 bus=12786-8077744.2 conn=wye Kv=7.9674 Kva=5.0 %R=0.500
~ wdg=2 bus=2280988-8077744v.1.4 conn=wye Kv=0.1100 Kva=5.0 %R=0.500
~ wdg=3 bus=2280988-8077744v.4.2 conn=wye Kv=0.1100 Kva=5.0 %R=0.500
New Transformer.3092518 phases=3 windings=2 Xhl=1.200
~ wdg=1 bus=12786-8077834.1.2.3 conn=delta Kv=13.8 Kva=75.0 %R=0.500
~ wdg=2 bus=3092518-8077835.1.2.3.4 conn=wye Kv=0.2200 Kva=75.0 %R=0.500
New Transformer.2281358 phases=3 windings=2 Xhl=1.200
~ wdg=1 bus=12786-8077838.1.2.3 conn=delta Kv=13.8 Kva=112.5 %R=0.500
~ wdg=2 bus=2281358-8077838v.1.2.3.4 conn=wye Kv=0.2200 Kva=112.5 %R=0.500
New Transformer.2281384 phases=3 windings=2 Xhl=1.200
~ wdg=1 bus=12786-8077964.1.2.3 conn=delta Kv=13.8 Kva=75.0 %R=0.500
~ wdg=2 bus=2281384-8077965.1.2.3.4 conn=wye Kv=0.2200 Kva=75.0 %R=0.500
New Transformer.2280945 phases=1 windings=3 Xhl=1.200 Xht=1.200 Xlt=0.600
~ wdg=1 bus=12786-8078150.2 conn=wye Kv=7.9674 Kva=10.0 %R=0.500
~ wdg=2 bus=2280945-8078151.1.4 conn=wye Kv=0.1100 Kva=10.0 %R=0.500
~ wdg=3 bus=2280945-8078151.4.2 conn=wye Kv=0.1100 Kva=10.0 %R=0.500
New Transformer.2281071 phases=1 windings=3 Xhl=1.200 Xht=1.200 Xlt=0.600
~ wdg=1 bus=12786-8078166.2 conn=wye Kv=7.9674 Kva=5.0 %R=0.500
~ wdg=2 bus=2281071-8078167.1.4 conn=wye Kv=0.1100 Kva=5.0 %R=0.500
~ wdg=3 bus=2281071-8078167.4.2 conn=wye Kv=0.1100 Kva=5.0 %R=0.500
New Transformer.2281413 phases=3 windings=2 Xhl=1.200
~ wdg=1 bus=12786-8078229.1.2.3 conn=delta Kv=13.8 Kva=45.0 %R=0.500
~ wdg=2 bus=2281413-8078230.1.2.3.4 conn=wye Kv=0.2200 Kva=45.0 %R=0.500
New Transformer.2281019 phases=3 windings=2 Xhl=1.200
~ wdg=1 bus=12786-8078337.1.2.3 conn=delta Kv=13.8 Kva=75.0 %R=0.500
~ wdg=2 bus=2281019-8078338.1.2.3.4 conn=wye Kv=0.2200 Kva=75.0 %R=0.500
New Transformer.2281361 phases=3 windings=2 Xhl=1.200
~ wdg=1 bus=12786-8078339.1.2.3 conn=delta Kv=13.8 Kva=45.0 %R=0.500
~ wdg=2 bus=2281361-8078340.1.2.3.4 conn=wye Kv=0.2200 Kva=45.0 %R=0.500
New Transformer.2280949 phases=3 windings=2 Xhl=1.200
~ wdg=1 bus=12786-8078346.1.2.3 conn=delta Kv=13.8 Kva=75.0 %R=0.500
~ wdg=2 bus=2280949-8078347.1.2.3.4 conn=wye Kv=0.2200 Kva=75.0 %R=0.500
New Transformer.2281049 phases=3 windings=2 Xhl=1.200
~ wdg=1 bus=12786-8078356.1.2.3 conn=delta Kv=13.8 Kva=112.5 %R=0.500
~ wdg=2 bus=2281049-8078356v.1.2.3.4 conn=wye Kv=0.2200 Kva=112.5 %R=0.500
New Transformer.2281366 phases=3 windings=2 Xhl=1.200
~ wdg=1 bus=12786-8078369.1.2.3 conn=delta Kv=13.8 Kva=75.0 %R=0.500
~ wdg=2 bus=2281366-8078369v.1.2.3.4 conn=wye Kv=0.2200 Kva=75.0 %R=0.500
New Transformer.2280872 phases=1 windings=3 Xhl=1.200 Xht=1.200 Xlt=0.600
~ wdg=1 bus=12786-8078370.2 conn=wye Kv=7.9674 Kva=15.0 %R=0.500
~ wdg=2 bus=2280872-8078370v.1.4 conn=wye Kv=0.1100 Kva=15.0 %R=0.500
~ wdg=3 bus=2280872-8078370v.4.2 conn=wye Kv=0.1100 Kva=15.0 %R=0.500
New Transformer.2281038 phases=1 windings=3 Xhl=1.200 Xht=1.200 Xlt=0.600
~ wdg=1 bus=12786-8078372.2 conn=wye Kv=7.9674 Kva=15.0 %R=0.500
~ wdg=2 bus=2281038-8078372v.1.4 conn=wye Kv=0.1100 Kva=15.0 %R=0.500
~ wdg=3 bus=2281038-8078372v.4.2 conn=wye Kv=0.1100 Kva=15.0 %R=0.500
New Transformer.2281074 phases=1 windings=3 Xhl=1.200 Xht=1.200 Xlt=0.600
~ wdg=1 bus=12786-8078373.2 conn=wye Kv=7.9674 Kva=10.0 %R=0.500
~ wdg=2 bus=2281074-8078373v.1.4 conn=wye Kv=0.1100 Kva=10.0 %R=0.500
~ wdg=3 bus=2281074-8078373v.4.2 conn=wye Kv=0.1100 Kva=10.0 %R=0.500
New Transformer.2281379 phases=1 windings=3 Xhl=1.200 Xht=1.200 Xlt=0.600
~ wdg=1 bus=12786-8078375.2 conn=wye Kv=7.9674 Kva=10.0 %R=0.500
~ wdg=2 bus=2281379-8078375v.1.4 conn=wye Kv=0.1100 Kva=10.0 %R=0.500
~ wdg=3 bus=2281379-8078375v.4.2 conn=wye Kv=0.1100 Kva=10.0 %R=0.500
New Transformer.2281390 phases=3 windings=2 Xhl=1.200
~ wdg=1 bus=12786-8078378.1.2.3 conn=delta Kv=13.8 Kva=225.0 %R=0.500
~ wdg=2 bus=2281390-8078378v.1.2.3.4 conn=wye Kv=0.2200 Kva=225.0 %R=0.500
New Transformer.2281081 phases=3 windings=2 Xhl=1.200
~ wdg=1 bus=12786-8078637.1.2.3 conn=delta Kv=13.8 Kva=45.0 %R=0.500
~ wdg=2 bus=2281081-8078638.1.2.3.4 conn=wye Kv=0.2200 Kva=45.0 %R=0.500
New Transformer.2281204 phases=1 windings=3 Xhl=1.200 Xht=1.200 Xlt=0.600
~ wdg=1 bus=12786-8078680.1 conn=wye Kv=7.9674 Kva=5.0 %R=0.500
~ wdg=2 bus=2281204-8078680v.1.4 conn=wye Kv=0.1100 Kva=5.0 %R=0.500
~ wdg=3 bus=2281204-8078680v.4.2 conn=wye Kv=0.1100 Kva=5.0 %R=0.500
New Transformer.2280781 phases=1 windings=3 Xhl=1.200 Xht=1.200 Xlt=0.600
~ wdg=1 bus=12786-8078681.2 conn=wye Kv=7.9674 Kva=5.0 %R=0.500
~ wdg=2 bus=2280781-8078681v.1.4 conn=wye Kv=0.1100 Kva=5.0 %R=0.500
~ wdg=3 bus=2280781-8078681v.4.2 conn=wye Kv=0.1100 Kva=5.0 %R=0.500
New Transformer.2281098 phases=1 windings=3 Xhl=1.200 Xht=1.200 Xlt=0.600
~ wdg=1 bus=12786-8078704.2 conn=wye Kv=7.9674 Kva=5.0 %R=0.500
~ wdg=2 bus=2281098-8078704v.1.4 conn=wye Kv=0.1100 Kva=5.0 %R=0.500
~ wdg=3 bus=2281098-8078704v.4.2 conn=wye Kv=0.1100 Kva=5.0 %R=0.500
New Transformer.2281161 phases=1 windings=3 Xhl=1.200 Xht=1.200 Xlt=0.600
~ wdg=1 bus=12786-8078776.2 conn=wye Kv=7.9674 Kva=5.0 %R=0.500
~ wdg=2 bus=2281161-8078776v.1.4 conn=wye Kv=0.1100 Kva=5.0 %R=0.500
~ wdg=3 bus=2281161-8078776v.4.2 conn=wye Kv=0.1100 Kva=5.0 %R=0.500
New Transformer.2281001 phases=1 windings=3 Xhl=1.200 Xht=1.200 Xlt=0.600
~ wdg=1 bus=12786-8078780.2 conn=wye Kv=7.9674 Kva=5.0 %R=0.500
~ wdg=2 bus=2281001-8078780v.1.4 conn=wye Kv=0.1100 Kva=5.0 %R=0.500
~ wdg=3 bus=2281001-8078780v.4.2 conn=wye Kv=0.1100 Kva=5.0 %R=0.500
New Transformer.2281258 phases=1 windings=3 Xhl=1.200 Xht=1.200 Xlt=0.600
~ wdg=1 bus=12786-8078790.2 conn=wye Kv=7.9674 Kva=5.0 %R=0.500
~ wdg=2 bus=2281258-8078790v.1.4 conn=wye Kv=0.1100 Kva=5.0 %R=0.500
~ wdg=3 bus=2281258-8078790v.4.2 conn=wye Kv=0.1100 Kva=5.0 %R=0.500
New Transformer.2281014 phases=3 windings=2 Xhl=1.200
~ wdg=1 bus=12786-8078802.1.2.3 conn=delta Kv=13.8 Kva=45.0 %R=0.500
~ wdg=2 bus=2281014-8078803.1.2.3.4 conn=wye Kv=0.2200 Kva=45.0 %R=0.500
New Transformer.2280844 phases=3 windings=2 Xhl=1.200
~ wdg=1 bus=12786-8078804.1.2.3 conn=delta Kv=13.8 Kva=75.0 %R=0.500
~ wdg=2 bus=2280844-8078804v.1.2.3.4 conn=wye Kv=0.2200 Kva=75.0 %R=0.500
New Transformer.2281037 phases=1 windings=3 Xhl=1.200 Xht=1.200 Xlt=0.600
~ wdg=1 bus=12786-8078810.2 conn=wye Kv=7.9674 Kva=10.0 %R=0.500
~ wdg=2 bus=2281037-8078810v.1.4 conn=wye Kv=0.1100 Kva=10.0 %R=0.500
~ wdg=3 bus=2281037-8078810v.4.2 conn=wye Kv=0.1100 Kva=10.0 %R=0.500
New Transformer.2280940 phases=1 windings=3 Xhl=1.200 Xht=1.200 Xlt=0.600
~ wdg=1 bus=12786-8078814.1 conn=wye Kv=7.9674 Kva=15.0 %R=0.500
~ wdg=2 bus=2280940-8078814v.1.4 conn=wye Kv=0.1100 Kva=15.0 %R=0.500
~ wdg=3 bus=2280940-8078814v.4.2 conn=wye Kv=0.1100 Kva=15.0 %R=0.500
New Transformer.2281387 phases=3 windings=2 Xhl=1.200
~ wdg=1 bus=12786-8078815.1.2.3 conn=delta Kv=13.8 Kva=75.0 %R=0.500
~ wdg=2 bus=2281387-8078816.1.2.3.4 conn=wye Kv=0.2200 Kva=75.0 %R=0.500
New Transformer.2281211 phases=3 windings=2 Xhl=1.200
~ wdg=1 bus=12786-8078885.1.2.3 conn=delta Kv=13.8 Kva=30.0 %R=0.500
~ wdg=2 bus=2281211-8078886.1.2.3.4 conn=wye Kv=0.2200 Kva=30.0 %R=0.500
New Transformer.2280907 phases=3 windings=2 Xhl=1.200
~ wdg=1 bus=12786-8078887.1.2.3 conn=delta Kv=13.8 Kva=75.0 %R=0.500
~ wdg=2 bus=2280907-8078888.1.2.3.4 conn=wye Kv=0.2200 Kva=75.0 %R=0.500
New Transformer.2815165 phases=3 windings=2 Xhl=1.200
~ wdg=1 bus=16307-11087127.1.2.3 conn=delta Kv=13.8 Kva=45.0 %R=0.500
~ wdg=2 bus=2815165-11087128.1.2.3.4 conn=wye Kv=0.2200 Kva=45.0 %R=0.500
New Transformer.3138692 phases=3 windings=2 Xhl=1.200
~ wdg=1 bus=16307-11087133.1.2.3 conn=delta Kv=13.8 Kva=75.0 %R=0.500
~ wdg=2 bus=3138692-11087133v.1.2.3.4 conn=wye Kv=0.2200 Kva=75.0 %R=0.500
New Transformer.2815492 phases=3 windings=2 Xhl=1.200
~ wdg=1 bus=16307-11087279.1.2.3 conn=delta Kv=13.8 Kva=30.0 %R=0.500
~ wdg=2 bus=2815492-11087280.1.2.3.4 conn=wye Kv=0.2200 Kva=30.0 %R=0.500
New Transformer.2815384 phases=1 windings=3 Xhl=1.200 Xht=1.200 Xlt=0.600
~ wdg=1 bus=16307-11087349.2 conn=wye Kv=7.9674 Kva=15.0 %R=0.500
~ wdg=2 bus=2815384-11087349v.1.4 conn=wye Kv=0.1100 Kva=15.0 %R=0.500
~ wdg=3 bus=2815384-11087349v.4.2 conn=wye Kv=0.1100 Kva=15.0 %R=0.500
New Transformer.2815110 phases=3 windings=2 Xhl=1.200
~ wdg=1 bus=16307-11087385.1.2.3 conn=delta Kv=13.8 Kva=112.5 %R=0.500
~ wdg=2 bus=2815110-11087386.1.2.3.4 conn=wye Kv=0.2200 Kva=112.5 %R=0.500
New Transformer.2815166 phases=3 windings=2 Xhl=1.200
~ wdg=1 bus=16307-11087387.1.2.3 conn=delta Kv=13.8 Kva=75.0 %R=0.500
~ wdg=2 bus=2815166-11087388.1.2.3.4 conn=wye Kv=0.2200 Kva=75.0 %R=0.500
New Transformer.2815179 phases=1 windings=3 Xhl=1.200 Xht=1.200 Xlt=0.600
~ wdg=1 bus=16307-11087402.2 conn=wye Kv=7.9674 Kva=15.0 %R=0.500
~ wdg=2 bus=2815179-11087402v.1.4 conn=wye Kv=0.1100 Kva=15.0 %R=0.500
~ wdg=3 bus=2815179-11087402v.4.2 conn=wye Kv=0.1100 Kva=15.0 %R=0.500
New Transformer.2815308 phases=3 windings=2 Xhl=1.200
~ wdg=1 bus=16307-11087406.1.2.3 conn=delta Kv=13.8 Kva=45.0 %R=0.500
~ wdg=2 bus=2815308-11087407.1.2.3.4 conn=wye Kv=0.2200 Kva=45.0 %R=0.500
New Transformer.2815352 phases=1 windings=3 Xhl=1.200 Xht=1.200 Xlt=0.600
~ wdg=1 bus=16307-11087416.2 conn=wye Kv=7.9674 Kva=15.0 %R=0.500
~ wdg=2 bus=2815352-11087416v.1.4 conn=wye Kv=0.1100 Kva=15.0 %R=0.500
~ wdg=3 bus=2815352-11087416v.4.2 conn=wye Kv=0.1100 Kva=15.0 %R=0.500
New Transformer.2815493 phases=3 windings=2 Xhl=1.200
~ wdg=1 bus=16307-11087417.1.2.3 conn=delta Kv=13.8 Kva=15.0 %R=0.500
~ wdg=2 bus=2815493-11087418.1.2.3.4 conn=wye Kv=0.2200 Kva=15.0 %R=0.500
New Transformer.2815282 phases=1 windings=3 Xhl=1.200 Xht=1.200 Xlt=0.600
~ wdg=1 bus=16307-11087427.1 conn=wye Kv=7.9674 Kva=15.0 %R=0.500
~ wdg=2 bus=2815282-11087427v.1.4 conn=wye Kv=0.1100 Kva=15.0 %R=0.500
~ wdg=3 bus=2815282-11087427v.4.2 conn=wye Kv=0.1100 Kva=15.0 %R=0.500
New Transformer.2815116 phases=1 windings=3 Xhl=1.200 Xht=1.200 Xlt=0.600
~ wdg=1 bus=16307-11087706.2 conn=wye Kv=7.9674 Kva=15.0 %R=0.500
~ wdg=2 bus=2815116-11087706v.1.4 conn=wye Kv=0.1100 Kva=15.0 %R=0.500
~ wdg=3 bus=2815116-11087706v.4.2 conn=wye Kv=0.1100 Kva=15.0 %R=0.500
New Transformer.2815361 phases=1 windings=3 Xhl=1.200 Xht=1.200 Xlt=0.600
~ wdg=1 bus=16307-11087716.2 conn=wye Kv=7.9674 Kva=10.0 %R=0.500
~ wdg=2 bus=2815361-11087716v.1.4 conn=wye Kv=0.1100 Kva=10.0 %R=0.500
~ wdg=3 bus=2815361-11087716v.4.2 conn=wye Kv=0.1100 Kva=10.0 %R=0.500
New Transformer.2815381 phases=3 windings=2 Xhl=1.200
~ wdg=1 bus=16307-11087770.1.2.3 conn=delta Kv=13.8 Kva=75.0 %R=0.500
~ wdg=2 bus=2815381-11087771.1.2.3.4 conn=wye Kv=0.2200 Kva=75.0 %R=0.500
New Transformer.2815293 phases=1 windings=3 Xhl=1.200 Xht=1.200 Xlt=0.600
~ wdg=1 bus=16307-11087783.2 conn=wye Kv=7.9674 Kva=15.0 %R=0.500
~ wdg=2 bus=2815293-11087784.1.4 conn=wye Kv=0.1100 Kva=15.0 %R=0.500
~ wdg=3 bus=2815293-11087784.4.2 conn=wye Kv=0.1100 Kva=15.0 %R=0.500
New Transformer.2815245 phases=1 windings=3 Xhl=1.200 Xht=1.200 Xlt=0.600
~ wdg=1 bus=16307-11087797.2 conn=wye Kv=7.9674 Kva=10.0 %R=0.500
~ wdg=2 bus=2815245-11087797v.1.4 conn=wye Kv=0.1100 Kva=10.0 %R=0.500
~ wdg=3 bus=2815245-11087797v.4.2 conn=wye Kv=0.1100 Kva=10.0 %R=0.500
New Transformer.2815160 phases=1 windings=3 Xhl=1.200 Xht=1.200 Xlt=0.600
~ wdg=1 bus=16307-11087801.1 conn=wye Kv=7.9674 Kva=10.0 %R=0.500
~ wdg=2 bus=2815160-11087801v.1.4 conn=wye Kv=0.1100 Kva=10.0 %R=0.500
~ wdg=3 bus=2815160-11087801v.4.2 conn=wye Kv=0.1100 Kva=10.0 %R=0.500
New Transformer.2815093 phases=1 windings=3 Xhl=1.200 Xht=1.200 Xlt=0.600
~ wdg=1 bus=16307-11087802.2 conn=wye Kv=7.9674 Kva=15.0 %R=0.500
~ wdg=2 bus=2815093-11087803.1.4 conn=wye Kv=0.1100 Kva=15.0 %R=0.500
~ wdg=3 bus=2815093-11087803.4.2 conn=wye Kv=0.1100 Kva=15.0 %R=0.500
New Transformer.2815159 phases=3 windings=2 Xhl=1.200
~ wdg=1 bus=16307-11087806.1.2.3 conn=delta Kv=13.8 Kva=15.0 %R=0.500
~ wdg=2 bus=2815159-11087807.1.2.3.4 conn=wye Kv=0.2200 Kva=15.0 %R=0.500
New Transformer.2815092 phases=1 windings=3 Xhl=1.200 Xht=1.200 Xlt=0.600
~ wdg=1 bus=16307-11087811.2 conn=wye Kv=7.9674 Kva=15.0 %R=0.500
~ wdg=2 bus=2815092-11087812.1.4 conn=wye Kv=0.1100 Kva=15.0 %R=0.500
~ wdg=3 bus=2815092-11087812.4.2 conn=wye Kv=0.1100 Kva=15.0 %R=0.500
New Transformer.2815451 phases=1 windings=3 Xhl=1.200 Xht=1.200 Xlt=0.600
~ wdg=1 bus=16307-11087836.2 conn=wye Kv=7.9674 Kva=15.0 %R=0.500
~ wdg=2 bus=2815451-11087836v.1.4 conn=wye Kv=0.1100 Kva=15.0 %R=0.500
~ wdg=3 bus=2815451-11087836v.4.2 conn=wye Kv=0.1100 Kva=15.0 %R=0.500
New Transformer.2815048 phases=3 windings=2 Xhl=1.200
~ wdg=1 bus=16307-11087858.1.2.3 conn=delta Kv=13.8 Kva=112.5 %R=0.500
~ wdg=2 bus=2815048-11087859.1.2.3.4 conn=wye Kv=0.2200 Kva=112.5 %R=0.500
New Transformer.2815474 phases=3 windings=2 Xhl=1.200
~ wdg=1 bus=16307-11087867.1.2.3 conn=delta Kv=13.8 Kva=45.0 %R=0.500
~ wdg=2 bus=2815474-11087868.1.2.3.4 conn=wye Kv=0.2200 Kva=45.0 %R=0.500
New Transformer.2815462 phases=1 windings=3 Xhl=1.200 Xht=1.200 Xlt=0.600
~ wdg=1 bus=16307-11087873.2 conn=wye Kv=7.9674 Kva=5.0 %R=0.500
~ wdg=2 bus=2815462-11087873v.1.4 conn=wye Kv=0.1100 Kva=5.0 %R=0.500
~ wdg=3 bus=2815462-11087873v.4.2 conn=wye Kv=0.1100 Kva=5.0 %R=0.500
New Transformer.2815157 phases=3 windings=2 Xhl=1.200
~ wdg=1 bus=16307-11087881.1.2.3 conn=delta Kv=13.8 Kva=45.0 %R=0.500
~ wdg=2 bus=2815157-11087882.1.2.3.4 conn=wye Kv=0.2200 Kva=45.0 %R=0.500
New Transformer.2815294 phases=1 windings=3 Xhl=1.200 Xht=1.200 Xlt=0.600
~ wdg=1 bus=16307-11087892.2 conn=wye Kv=7.9674 Kva=5.0 %R=0.500
~ wdg=2 bus=2815294-11087892v.1.4 conn=wye Kv=0.1100 Kva=5.0 %R=0.500
~ wdg=3 bus=2815294-11087892v.4.2 conn=wye Kv=0.1100 Kva=5.0 %R=0.500
New Transformer.2815209 phases=1 windings=3 Xhl=1.200 Xht=1.200 Xlt=0.600
~ wdg=1 bus=16307-11087893.2 conn=wye Kv=7.9674 Kva=15.0 %R=0.500
...